@<TRIPOS>MOLECULE
MOL
  2368  3282     0
SMALL
NO_CHARGES
****
ITC 2023. ALL RIGHTS RESERVED.

@<TRIPOS>ATOM
    13 Zr      15.3763   8.7189  17.6229   Z         1 RES1   0.0000
    15 Zr      11.3759   8.7189   9.1293   Z         1 RES1   0.0000
    17 Zr      17.6229  15.3763   8.7189   Z         1 RES1   0.0000
    19 Zr       9.1293  11.3759   8.7189   Z         1 RES1   0.0000
    21 Zr       8.7189  17.6229  15.3763   Z         1 RES1   0.0000
    23 Zr       8.7189   9.1293  11.3759   Z         1 RES1   0.0000
    37 O1      14.1073  10.5493  17.6921   O         1 RES1   0.0000
    38 O1      12.6449  16.2029  17.6921   O         1 RES1   0.0000
    39 O1      12.6449  10.5493   9.0601   O         1 RES1   0.0000
    40 O1      14.1073  16.2029   9.0601   O         1 RES1   0.0000
    41 O1      17.6921  14.1073  10.5493   O         1 RES1   0.0000
    42 O1      17.6921  12.6449  16.2029   O         1 RES1   0.0000
    43 O1       9.0601  12.6449  10.5493   O         1 RES1   0.0000
    44 O1       9.0601  14.1073  16.2029   O         1 RES1   0.0000
    45 O1      10.5493  17.6921  14.1073   O         1 RES1   0.0000
    46 O1      16.2029  17.6921  12.6449   O         1 RES1   0.0000
    47 O1      10.5493   9.0601  12.6449   O         1 RES1   0.0000
    48 O1      16.2029   9.0601  14.1073   O         1 RES1   0.0000
    85 O1      14.4533   8.7872  15.5823   O         1 RES1   0.0000
    86 O1      12.2989  17.9650  15.5823   O         1 RES1   0.0000
    87 O1      12.2989   8.7872  11.1699   O         1 RES1   0.0000
    88 O1      14.4533  17.9650  11.1699   O         1 RES1   0.0000
    89 O1      15.5823  14.4533   8.7872   O         1 RES1   0.0000
    90 O1      15.5823  12.2989  17.9650   O         1 RES1   0.0000
    91 O1      11.1699  12.2989   8.7872   O         1 RES1   0.0000
    92 O1      11.1699  14.4533  17.9650   O         1 RES1   0.0000
    93 O1       8.7872  15.5823  14.4533   O         1 RES1   0.0000
    94 O1      17.9650  15.5823  12.2989   O         1 RES1   0.0000
    95 O1       8.7872  11.1699  12.2989   O         1 RES1   0.0000
    96 O1      17.9650  11.1699  14.4533   O         1 RES1   0.0000
   205 C1      14.4355  11.7745  17.8348   C         1 RES1   0.0000
   206 C1      12.3167  14.9777  17.8348   C         1 RES1   0.0000
   207 C1      12.3167  11.7745   8.9174   C         1 RES1   0.0000
   208 C1      14.4355  14.9777   8.9174   C         1 RES1   0.0000
   209 C1      17.8348  14.4355  11.7745   C         1 RES1   0.0000
   210 C1      17.8348  12.3167  14.9777   C         1 RES1   0.0000
   211 C1       8.9174  12.3167  11.7745   C         1 RES1   0.0000
   212 C1       8.9174  14.4355  14.9777   C         1 RES1   0.0000
   213 C1      11.7745  17.8348  14.4355   C         1 RES1   0.0000
   214 C1      14.9777  17.8348  12.3167   C         1 RES1   0.0000
   215 C1      11.7745   8.9174  12.3167   C         1 RES1   0.0000
   216 C1      14.9777   8.9174  14.4355   C         1 RES1   0.0000
   229 C2      13.2566  12.7251  17.8330   C         1 RES1   0.0000
   230 C2      13.4956  14.0271  17.8330   C         1 RES1   0.0000
   231 C2      13.4956  12.7251   8.9192   C         1 RES1   0.0000
   232 C2      13.2566  14.0271   8.9192   C         1 RES1   0.0000
   233 C2      17.8330  13.2566  12.7251   C         1 RES1   0.0000
   234 C2      17.8330  13.4956  14.0271   C         1 RES1   0.0000
   235 C2       8.9192  13.4956  12.7251   C         1 RES1   0.0000
   236 C2       8.9192  13.2566  14.0271   C         1 RES1   0.0000
   237 C2      12.7251  17.8330  13.2566   C         1 RES1   0.0000
   238 C2      14.0271  17.8330  13.4956   C         1 RES1   0.0000
   239 C2      12.7251   8.9192  13.4956   C         1 RES1   0.0000
   240 C2      14.0271   8.9192  13.2566   C         1 RES1   0.0000
   253 H       12.3845  12.4023  17.8330   H         1 RES1   0.0000
   254 H       14.3677  14.3499  17.8330   H         1 RES1   0.0000
   255 H       14.3677  12.4023   8.9192   H         1 RES1   0.0000
   256 H       12.3845  14.3499   8.9192   H         1 RES1   0.0000
   257 H       17.8330  12.3845  12.4023   H         1 RES1   0.0000
   258 H       17.8330  14.3677  14.3499   H         1 RES1   0.0000
   259 H        8.9192  14.3677  12.4023   H         1 RES1   0.0000
   260 H        8.9192  12.3845  14.3499   H         1 RES1   0.0000
   261 H       12.4023  17.8330  12.3845   H         1 RES1   0.0000
   262 H       14.3499  17.8330  14.3677   H         1 RES1   0.0000
   263 H       12.4023   8.9192  14.3677   H         1 RES1   0.0000
   264 H       14.3499   8.9192  12.3845   H         1 RES1   0.0000
   325 O2      16.4348  10.3174  16.4348   O         1 RES1   0.0000
   326 O2      10.3174  16.4348  16.4348   O         1 RES1   0.0000
   327 O2      10.3174  10.3174  10.3174   O         1 RES1   0.0000
   328 O2      16.4348  16.4348  10.3174   O         1 RES1   0.0000
   336 Zr      20.2933  17.6363   8.7055   Z         1 RES1   0.0000
   344 Zr       8.7055  20.2933  17.6363   Z         1 RES1   0.0000
   352 Zr      17.6363   8.7055  20.2933   Z         1 RES1   0.0000
   357 Zr      11.3759  18.0333  17.6229   Z         1 RES1   0.0000
   360 Zr      15.3763  18.0333   9.1293   Z         1 RES1   0.0000
   365 Zr      17.6229  11.3759  18.0333   Z         1 RES1   0.0000
   368 Zr       9.1293  15.3763  18.0333   Z         1 RES1   0.0000
   373 Zr      18.0333  17.6229  11.3759   Z         1 RES1   0.0000
   376 Zr      18.0333   9.1293  15.3763   Z         1 RES1   0.0000
   407 O1      14.1109   8.4911  19.4506   O         1 RES1   0.0000
   409 O1      19.4506  14.1109   8.4911   O         1 RES1   0.0000
   411 O1       8.4911  19.4506  14.1109   O         1 RES1   0.0000
   416 O2      19.1992  16.1993  10.0713   O         1 RES1   0.0000
   420 O2      10.0713  19.1992  16.1993   O         1 RES1   0.0000
   424 O2      16.1993  10.0713  19.1992   O         1 RES1   0.0000
   492 Zr       9.1159   8.7055  24.2937   Z         1 RES1   0.0000
   493 Zr      15.3763   8.7189  35.4577   Z         1 RES1   0.0000
   495 Zr      11.3759   8.7189  26.9641   Z         1 RES1   0.0000
   497 Zr      17.6229  15.3763  26.5537   Z         1 RES1   0.0000
   498 Zr       9.1293  11.3759  26.5537   Z         1 RES1   0.0000
   499 Zr       8.7189  17.6229  33.2111   Z         1 RES1   0.0000
   501 Zr       8.7189   9.1293  29.2107   Z         1 RES1   0.0000
   513 O1      14.1073  10.5493  35.5269   O         1 RES1   0.0000
   514 O1      12.6449  16.2029  35.5269   O         1 RES1   0.0000
   515 O1      12.6449  10.5493  26.8949   O         1 RES1   0.0000
   516 O1      14.1073  16.2029  26.8949   O         1 RES1   0.0000
   517 O1      17.6921  14.1073  28.3841   O         1 RES1   0.0000
   518 O1      17.6921  12.6449  34.0377   O         1 RES1   0.0000
   519 O1       9.0601  12.6449  28.3841   O         1 RES1   0.0000
   520 O1       9.0601  14.1073  34.0377   O         1 RES1   0.0000
   521 O1      10.5493  17.6921  31.9421   O         1 RES1   0.0000
   522 O1      16.2029  17.6921  30.4797   O         1 RES1   0.0000
   523 O1      10.5493   9.0601  30.4797   O         1 RES1   0.0000
   524 O1      16.2029   9.0601  31.9421   O         1 RES1   0.0000
   535 O1      11.1396   8.4787  23.3565   O         1 RES1   0.0000
   536 O1      15.6126   8.4787  21.2305   O         1 RES1   0.0000
   541 O1      17.3961  14.4391  24.5300   O         1 RES1   0.0000
   542 O1      17.3961  12.3131  20.0570   O         1 RES1   0.0000
   543 O1       9.3561  12.3131  24.5300   O         1 RES1   0.0000
   544 O1       9.3561  14.4391  20.0570   O         1 RES1   0.0000
   559 O1      14.4533   8.7872  33.4171   O         1 RES1   0.0000
   560 O1      12.2989  17.9650  33.4171   O         1 RES1   0.0000
   561 O1      12.2989   8.7872  29.0047   O         1 RES1   0.0000
   562 O1      14.4533  17.9650  29.0047   O         1 RES1   0.0000
   563 O1      15.5823  14.4533  26.6220   O         1 RES1   0.0000
   564 O1      15.5823  12.2989  35.7998   O         1 RES1   0.0000
   565 O1      11.1699  12.2989  26.6220   O         1 RES1   0.0000
   566 O1      11.1699  14.4533  35.7998   O         1 RES1   0.0000
   567 O1       8.7872  15.5823  32.2881   O         1 RES1   0.0000
   568 O1      17.9650  15.5823  30.1337   O         1 RES1   0.0000
   569 O1       8.7872  11.1699  30.1337   O         1 RES1   0.0000
   570 O1      17.9650  11.1699  32.2881   O         1 RES1   0.0000
   579 O1       9.3437  16.2190  21.5587   O         1 RES1   0.0000
   580 O1      17.4085  16.2190  23.0283   O         1 RES1   0.0000
   581 O1       9.3437  10.5332  23.0283   O         1 RES1   0.0000
   582 O1      17.4085  10.5332  21.5587   O         1 RES1   0.0000
   583 O1      12.6413   8.4911  25.1364   O         1 RES1   0.0000
   603 C1      12.2900   8.4894  23.8915   C         1 RES1   0.0000
   604 C1      14.4622   8.4894  20.6955   C         1 RES1   0.0000
   609 C1      17.4068  14.9741  23.3796   C         1 RES1   0.0000
   610 C1      17.4068  11.7781  21.2074   C         1 RES1   0.0000
   611 C1       9.3454  11.7781  23.3796   C         1 RES1   0.0000
   612 C1       9.3454  14.9741  21.2074   C         1 RES1   0.0000
   627 C2      13.4742   8.4840  22.9320   C         1 RES1   0.0000
   628 C2      13.2780   8.4840  21.6550   C         1 RES1   0.0000
   633 C2      17.4014  14.0146  22.1954   C         1 RES1   0.0000
   634 C2      17.4014  12.7376  22.3916   C         1 RES1   0.0000
   635 C2       9.3508  12.7376  22.1954   C         1 RES1   0.0000
   636 C2       9.3508  14.0146  22.3916   C         1 RES1   0.0000
   651 H       14.3427   8.4822  23.2655   H         1 RES1   0.0000
   652 H       12.4095   8.4822  21.3215   H         1 RES1   0.0000
   657 H       17.3996  14.3481  21.3269   H         1 RES1   0.0000
   658 H       17.3996  12.4041  23.2601   H         1 RES1   0.0000
   659 H        9.3526  12.4041  21.3269   H         1 RES1   0.0000
   660 H        9.3526  14.3481  23.2601   H         1 RES1   0.0000
   677 C1      14.4355  11.7745  35.6696   C         1 RES1   0.0000
   678 C1      12.3167  14.9777  35.6696   C         1 RES1   0.0000
   679 C1      12.3167  11.7745  26.7522   C         1 RES1   0.0000
   680 C1      14.4355  14.9777  26.7522   C         1 RES1   0.0000
   681 C1      17.8348  14.4355  29.6093   C         1 RES1   0.0000
   682 C1      17.8348  12.3167  32.8125   C         1 RES1   0.0000
   683 C1       8.9174  12.3167  29.6093   C         1 RES1   0.0000
   684 C1       8.9174  14.4355  32.8125   C         1 RES1   0.0000
   685 C1      11.7745  17.8348  32.2703   C         1 RES1   0.0000
   686 C1      14.9777  17.8348  30.1515   C         1 RES1   0.0000
   687 C1      11.7745   8.9174  30.1515   C         1 RES1   0.0000
   688 C1      14.9777   8.9174  32.2703   C         1 RES1   0.0000
   701 C2      13.2566  12.7251  35.6678   C         1 RES1   0.0000
   702 C2      13.4956  14.0271  35.6678   C         1 RES1   0.0000
   703 C2      13.4956  12.7251  26.7540   C         1 RES1   0.0000
   704 C2      13.2566  14.0271  26.7540   C         1 RES1   0.0000
   705 C2      17.8330  13.2566  30.5599   C         1 RES1   0.0000
   706 C2      17.8330  13.4956  31.8619   C         1 RES1   0.0000
   707 C2       8.9192  13.4956  30.5599   C         1 RES1   0.0000
   708 C2       8.9192  13.2566  31.8619   C         1 RES1   0.0000
   709 C2      12.7251  17.8330  31.0914   C         1 RES1   0.0000
   710 C2      14.0271  17.8330  31.3304   C         1 RES1   0.0000
   711 C2      12.7251   8.9192  31.3304   C         1 RES1   0.0000
   712 C2      14.0271   8.9192  31.0914   C         1 RES1   0.0000
   725 H       12.3845  12.4023  35.6678   H         1 RES1   0.0000
   726 H       14.3677  14.3499  35.6678   H         1 RES1   0.0000
   727 H       14.3677  12.4023  26.7540   H         1 RES1   0.0000
   728 H       12.3845  14.3499  26.7540   H         1 RES1   0.0000
   729 H       17.8330  12.3845  30.2371   H         1 RES1   0.0000
   730 H       17.8330  14.3677  32.1847   H         1 RES1   0.0000
   731 H        8.9192  14.3677  30.2371   H         1 RES1   0.0000
   732 H        8.9192  12.3845  32.1847   H         1 RES1   0.0000
   733 H       12.4023  17.8330  30.2193   H         1 RES1   0.0000
   734 H       14.3499  17.8330  32.2025   H         1 RES1   0.0000
   735 H       12.4023   8.9192  32.2025   H         1 RES1   0.0000
   736 H       14.3499   8.9192  30.2193   H         1 RES1   0.0000
   745 O2      10.5529  16.6809  19.1992   O         1 RES1   0.0000
   746 O2      16.1993  16.6809  25.3878   O         1 RES1   0.0000
   747 O2      10.5529  10.0713  25.3878   O         1 RES1   0.0000
   787 O2      16.4348  10.3174  34.2696   O         1 RES1   0.0000
   788 O2      10.3174  16.4348  34.2696   O         1 RES1   0.0000
   789 O2      10.3174  10.3174  28.1522   O         1 RES1   0.0000
   790 O2      16.4348  16.4348  28.1522   O         1 RES1   0.0000
   792 Zr      20.2933   9.1159  18.0467   Z         1 RES1   0.0000
   797 Zr      20.2933  17.6363  26.5403   Z         1 RES1   0.0000
   801 Zr       8.7055  20.2933  35.4711   Z         1 RES1   0.0000
   803 Zr       9.1159  18.0467  20.2933   Z         1 RES1   0.0000
   806 Zr      17.6363  18.0467  24.2937   Z         1 RES1   0.0000
   808 Zr      17.6363   8.7055  38.1281   Z         1 RES1   0.0000
   810 Zr      11.3759  18.0333  35.4577   Z         1 RES1   0.0000
   813 Zr      15.3763  18.0333  26.9641   Z         1 RES1   0.0000
   817 Zr      17.6229  11.3759  35.8681   Z         1 RES1   0.0000
   819 Zr       9.1293  15.3763  35.8681   Z         1 RES1   0.0000
   823 Zr      18.0333  17.6229  29.2107   Z         1 RES1   0.0000
   824 Zr      18.0333   9.1293  33.2111   Z         1 RES1   0.0000
   830 O1      19.4667   8.7747  21.5623   O         1 RES1   0.0000
   849 O1      14.1109   8.4911  37.2854   O         1 RES1   0.0000
   851 O1      19.4506  14.1109  26.3259   O         1 RES1   0.0000
   852 O1      19.4506  12.6413  18.2611   O         1 RES1   0.0000
   853 O1       8.4911  19.4506  31.9457   O         1 RES1   0.0000
   855 O2      19.1992  10.5529  16.6809   O         1 RES1   0.0000
   856 O2      19.1992  16.1993  27.9061   O         1 RES1   0.0000
   860 O2      10.0713  19.1992  34.0341   O         1 RES1   0.0000
   863 O2      16.1993  10.0713  37.0340   O         1 RES1   0.0000
   869 O2      18.9887  16.4704  25.1167   O         1 RES1   0.0000
   870 O2      18.9887  10.2818  19.4703   O         1 RES1   0.0000
   920 Zr       9.1159   8.7055  42.1285   Z         1 RES1   0.0000
   963 O1      11.1396   8.4787  41.1913   O         1 RES1   0.0000
   964 O1      15.6126   8.4787  39.0653   O         1 RES1   0.0000
   969 O1      17.3961  14.4391  42.3648   O         1 RES1   0.0000
   970 O1      17.3961  12.3131  37.8918   O         1 RES1   0.0000
   971 O1       9.3561  12.3131  42.3648   O         1 RES1   0.0000
   972 O1       9.3561  14.4391  37.8918   O         1 RES1   0.0000
  1007 O1       9.3437  16.2190  39.3935   O         1 RES1   0.0000
  1008 O1      17.4085  16.2190  40.8631   O         1 RES1   0.0000
  1009 O1       9.3437  10.5332  40.8631   O         1 RES1   0.0000
  1010 O1      17.4085  10.5332  39.3935   O         1 RES1   0.0000
  1011 O1      12.6413   8.4911  42.9712   O         1 RES1   0.0000
  1031 C1      12.2900   8.4894  41.7263   C         1 RES1   0.0000
  1032 C1      14.4622   8.4894  38.5303   C         1 RES1   0.0000
  1037 C1      17.4068  14.9741  41.2144   C         1 RES1   0.0000
  1038 C1      17.4068  11.7781  39.0422   C         1 RES1   0.0000
  1039 C1       9.3454  11.7781  41.2144   C         1 RES1   0.0000
  1040 C1       9.3454  14.9741  39.0422   C         1 RES1   0.0000
  1055 C2      13.4742   8.4840  40.7668   C         1 RES1   0.0000
  1056 C2      13.2780   8.4840  39.4898   C         1 RES1   0.0000
  1061 C2      17.4014  14.0146  40.0302   C         1 RES1   0.0000
  1062 C2      17.4014  12.7376  40.2264   C         1 RES1   0.0000
  1063 C2       9.3508  12.7376  40.0302   C         1 RES1   0.0000
  1064 C2       9.3508  14.0146  40.2264   C         1 RES1   0.0000
  1079 H       14.3427   8.4822  41.1003   H         1 RES1   0.0000
  1080 H       12.4095   8.4822  39.1563   H         1 RES1   0.0000
  1085 H       17.3996  14.3481  39.1617   H         1 RES1   0.0000
  1086 H       17.3996  12.4041  41.0949   H         1 RES1   0.0000
  1087 H        9.3526  12.4041  39.1617   H         1 RES1   0.0000
  1088 H        9.3526  14.3481  41.0949   H         1 RES1   0.0000
  1173 O2      10.5529  16.6809  37.0340   O         1 RES1   0.0000
  1174 O2      16.1993  16.6809  43.2226   O         1 RES1   0.0000
  1175 O2      10.5529  10.0713  43.2226   O         1 RES1   0.0000
  1220 Zr      20.2933   9.1159  35.8815   Z         1 RES1   0.0000
  1231 Zr       9.1159  18.0467  38.1281   Z         1 RES1   0.0000
  1234 Zr      17.6363  18.0467  42.1285   Z         1 RES1   0.0000
  1258 O1      19.4667   8.7747  39.3971   O         1 RES1   0.0000
  1280 O1      19.4506  12.6413  36.0959   O         1 RES1   0.0000
  1283 O2      19.1992  10.5529  34.5157   O         1 RES1   0.0000
  1297 O2      18.9887  16.4704  42.9515   O         1 RES1   0.0000
  1298 O2      18.9887  10.2818  37.3051   O         1 RES1   0.0000
  1346 Zr       8.7055  24.2937   9.1159   Z         1 RES1   0.0000
  1349 Zr      15.3763  26.5537  17.6229   Z         1 RES1   0.0000
  1350 Zr      11.3759  26.5537   9.1293   Z         1 RES1   0.0000
  1351 Zr      17.6229  33.2111   8.7189   Z         1 RES1   0.0000
  1353 Zr       9.1293  29.2107   8.7189   Z         1 RES1   0.0000
  1355 Zr       8.7189  35.4577  15.3763   Z         1 RES1   0.0000
  1357 Zr       8.7189  26.9641  11.3759   Z         1 RES1   0.0000
  1369 O1      14.1073  28.3841  17.6921   O         1 RES1   0.0000
  1370 O1      12.6449  34.0377  17.6921   O         1 RES1   0.0000
  1371 O1      12.6449  28.3841   9.0601   O         1 RES1   0.0000
  1372 O1      14.1073  34.0377   9.0601   O         1 RES1   0.0000
  1373 O1      17.6921  31.9421  10.5493   O         1 RES1   0.0000
  1374 O1      17.6921  30.4797  16.2029   O         1 RES1   0.0000
  1375 O1       9.0601  30.4797  10.5493   O         1 RES1   0.0000
  1376 O1       9.0601  31.9421  16.2029   O         1 RES1   0.0000
  1377 O1      10.5493  35.5269  14.1073   O         1 RES1   0.0000
  1378 O1      16.2029  35.5269  12.6449   O         1 RES1   0.0000
  1379 O1      10.5493  26.8949  12.6449   O         1 RES1   0.0000
  1380 O1      16.2029  26.8949  14.1073   O         1 RES1   0.0000
  1387 O1       8.4787  23.3565  11.1396   O         1 RES1   0.0000
  1388 O1       8.4787  21.2305  15.6126   O         1 RES1   0.0000
  1393 O1      14.4391  24.5300  17.3961   O         1 RES1   0.0000
  1394 O1      12.3131  20.0570  17.3961   O         1 RES1   0.0000
  1395 O1      12.3131  24.5300   9.3561   O         1 RES1   0.0000
  1396 O1      14.4391  20.0570   9.3561   O         1 RES1   0.0000
  1415 O1      14.4533  26.6220  15.5823   O         1 RES1   0.0000
  1416 O1      12.2989  35.7998  15.5823   O         1 RES1   0.0000
  1417 O1      12.2989  26.6220  11.1699   O         1 RES1   0.0000
  1418 O1      14.4533  35.7998  11.1699   O         1 RES1   0.0000
  1419 O1      15.5823  32.2881   8.7872   O         1 RES1   0.0000
  1420 O1      15.5823  30.1337  17.9650   O         1 RES1   0.0000
  1421 O1      11.1699  30.1337   8.7872   O         1 RES1   0.0000
  1422 O1      11.1699  32.2881  17.9650   O         1 RES1   0.0000
  1423 O1       8.7872  33.4171  14.4533   O         1 RES1   0.0000
  1424 O1      17.9650  33.4171  12.2989   O         1 RES1   0.0000
  1425 O1       8.7872  29.0047  12.2989   O         1 RES1   0.0000
  1426 O1      17.9650  29.0047  14.4533   O         1 RES1   0.0000
  1431 O1      16.2190  21.5587   9.3437   O         1 RES1   0.0000
  1432 O1      16.2190  23.0283  17.4085   O         1 RES1   0.0000
  1433 O1      10.5332  23.0283   9.3437   O         1 RES1   0.0000
  1434 O1      10.5332  21.5587  17.4085   O         1 RES1   0.0000
  1447 O1       8.4911  25.1364  12.6413   O         1 RES1   0.0000
  1455 C1       8.4894  23.8915  12.2900   C         1 RES1   0.0000
  1456 C1       8.4894  20.6955  14.4622   C         1 RES1   0.0000
  1461 C1      14.9741  23.3796  17.4068   C         1 RES1   0.0000
  1462 C1      11.7781  21.2074  17.4068   C         1 RES1   0.0000
  1463 C1      11.7781  23.3796   9.3454   C         1 RES1   0.0000
  1464 C1      14.9741  21.2074   9.3454   C         1 RES1   0.0000
  1479 C2       8.4840  22.9320  13.4742   C         1 RES1   0.0000
  1480 C2       8.4840  21.6550  13.2780   C         1 RES1   0.0000
  1485 C2      14.0146  22.1954  17.4014   C         1 RES1   0.0000
  1486 C2      12.7376  22.3916  17.4014   C         1 RES1   0.0000
  1487 C2      12.7376  22.1954   9.3508   C         1 RES1   0.0000
  1488 C2      14.0146  22.3916   9.3508   C         1 RES1   0.0000
  1503 H        8.4822  23.2655  14.3427   H         1 RES1   0.0000
  1504 H        8.4822  21.3215  12.4095   H         1 RES1   0.0000
  1509 H       14.3481  21.3269  17.3996   H         1 RES1   0.0000
  1510 H       12.4041  23.2601  17.3996   H         1 RES1   0.0000
  1511 H       12.4041  21.3269   9.3526   H         1 RES1   0.0000
  1512 H       14.3481  23.2601   9.3526   H         1 RES1   0.0000
  1533 C1      14.4355  29.6093  17.8348   C         1 RES1   0.0000
  1534 C1      12.3167  32.8125  17.8348   C         1 RES1   0.0000
  1535 C1      12.3167  29.6093   8.9174   C         1 RES1   0.0000
  1536 C1      14.4355  32.8125   8.9174   C         1 RES1   0.0000
  1537 C1      17.8348  32.2703  11.7745   C         1 RES1   0.0000
  1538 C1      17.8348  30.1515  14.9777   C         1 RES1   0.0000
  1539 C1       8.9174  30.1515  11.7745   C         1 RES1   0.0000
  1540 C1       8.9174  32.2703  14.9777   C         1 RES1   0.0000
  1541 C1      11.7745  35.6696  14.4355   C         1 RES1   0.0000
  1542 C1      14.9777  35.6696  12.3167   C         1 RES1   0.0000
  1543 C1      11.7745  26.7522  12.3167   C         1 RES1   0.0000
  1544 C1      14.9777  26.7522  14.4355   C         1 RES1   0.0000
  1557 C2      13.2566  30.5599  17.8330   C         1 RES1   0.0000
  1558 C2      13.4956  31.8619  17.8330   C         1 RES1   0.0000
  1559 C2      13.4956  30.5599   8.9192   C         1 RES1   0.0000
  1560 C2      13.2566  31.8619   8.9192   C         1 RES1   0.0000
  1561 C2      17.8330  31.0914  12.7251   C         1 RES1   0.0000
  1562 C2      17.8330  31.3304  14.0271   C         1 RES1   0.0000
  1563 C2       8.9192  31.3304  12.7251   C         1 RES1   0.0000
  1564 C2       8.9192  31.0914  14.0271   C         1 RES1   0.0000
  1565 C2      12.7251  35.6678  13.2566   C         1 RES1   0.0000
  1566 C2      14.0271  35.6678  13.4956   C         1 RES1   0.0000
  1567 C2      12.7251  26.7540  13.4956   C         1 RES1   0.0000
  1568 C2      14.0271  26.7540  13.2566   C         1 RES1   0.0000
  1581 H       12.3845  30.2371  17.8330   H         1 RES1   0.0000
  1582 H       14.3677  32.1847  17.8330   H         1 RES1   0.0000
  1583 H       14.3677  30.2371   8.9192   H         1 RES1   0.0000
  1584 H       12.3845  32.1847   8.9192   H         1 RES1   0.0000
  1585 H       17.8330  30.2193  12.4023   H         1 RES1   0.0000
  1586 H       17.8330  32.2025  14.3499   H         1 RES1   0.0000
  1587 H        8.9192  32.2025  12.4023   H         1 RES1   0.0000
  1588 H        8.9192  30.2193  14.3499   H         1 RES1   0.0000
  1589 H       12.4023  35.6678  12.3845   H         1 RES1   0.0000
  1590 H       14.3499  35.6678  14.3677   H         1 RES1   0.0000
  1591 H       12.4023  26.7540  14.3677   H         1 RES1   0.0000
  1592 H       14.3499  26.7540  12.3845   H         1 RES1   0.0000
  1597 O2      16.6809  19.1992  10.5529   O         1 RES1   0.0000
  1598 O2      16.6809  25.3878  16.1993   O         1 RES1   0.0000
  1599 O2      10.0713  25.3878  10.5529   O         1 RES1   0.0000
  1643 O2      16.4348  28.1522  16.4348   O         1 RES1   0.0000
  1644 O2      10.3174  34.2696  16.4348   O         1 RES1   0.0000
  1645 O2      10.3174  28.1522  10.3174   O         1 RES1   0.0000
  1646 O2      16.4348  34.2696  10.3174   O         1 RES1   0.0000
  1650 Zr      20.2933  35.4711   8.7055   Z         1 RES1   0.0000
  1652 Zr      18.0467  20.2933   9.1159   Z         1 RES1   0.0000
  1655 Zr      18.0467  24.2937  17.6363   Z         1 RES1   0.0000
  1657 Zr       8.7055  38.1281  17.6363   Z         1 RES1   0.0000
  1663 Zr      17.6363  26.5403  20.2933   Z         1 RES1   0.0000
  1667 Zr      11.3759  35.8681  17.6229   Z         1 RES1   0.0000
  1669 Zr      15.3763  35.8681   9.1293   Z         1 RES1   0.0000
  1673 Zr      17.6229  29.2107  18.0333   Z         1 RES1   0.0000
  1674 Zr       9.1293  33.2111  18.0333   Z         1 RES1   0.0000
  1676 Zr      18.0333  35.4577  11.3759   Z         1 RES1   0.0000
  1679 Zr      18.0333  26.9641  15.3763   Z         1 RES1   0.0000
  1683 O1       8.7747  21.5623  19.4667   O         1 RES1   0.0000
  1704 O1      14.1109  26.3259  19.4506   O         1 RES1   0.0000
  1705 O1      12.6413  18.2611  19.4506   O         1 RES1   0.0000
  1706 O1      19.4506  31.9457   8.4911   O         1 RES1   0.0000
  1708 O1       8.4911  37.2854  14.1109   O         1 RES1   0.0000
  1713 O2      19.1992  34.0341  10.0713   O         1 RES1   0.0000
  1716 O2      10.0713  37.0340  16.1993   O         1 RES1   0.0000
  1717 O2      16.1993  27.9061  19.1992   O         1 RES1   0.0000
  1719 O2      16.4704  25.1167  18.9887   O         1 RES1   0.0000
  1720 O2      10.2818  19.4703  18.9887   O         1 RES1   0.0000
  1767 Zr       8.7055  24.2937  26.9507   Z         1 RES1   0.0000
  1768 Zr       9.1159  26.5403  24.2937   Z         1 RES1   0.0000
  1769 Zr      15.3763  26.5537  35.4577   Z         1 RES1   0.0000
  1770 Zr      11.3759  26.5537  26.9641   Z         1 RES1   0.0000
  1771 Zr      17.6229  33.2111  26.5537   Z         1 RES1   0.0000
  1772 Zr       9.1293  29.2107  26.5537   Z         1 RES1   0.0000
  1773 Zr       8.7189  35.4577  33.2111   Z         1 RES1   0.0000
  1775 Zr       8.7189  26.9641  29.2107   Z         1 RES1   0.0000
  1780 O1       8.7747  23.0247  25.1203   O         1 RES1   0.0000
  1785 O1      14.1073  28.3841  35.5269   O         1 RES1   0.0000
  1786 O1      12.6449  34.0377  35.5269   O         1 RES1   0.0000
  1787 O1      12.6449  28.3841  26.8949   O         1 RES1   0.0000
  1788 O1      14.1073  34.0377  26.8949   O         1 RES1   0.0000
  1789 O1      17.6921  31.9421  28.3841   O         1 RES1   0.0000
  1790 O1      17.6921  30.4797  34.0377   O         1 RES1   0.0000
  1791 O1       9.0601  30.4797  28.3841   O         1 RES1   0.0000
  1792 O1       9.0601  31.9421  34.0377   O         1 RES1   0.0000
  1793 O1      10.5493  35.5269  31.9421   O         1 RES1   0.0000
  1794 O1      16.2029  35.5269  30.4797   O         1 RES1   0.0000
  1795 O1      10.5493  26.8949  30.4797   O         1 RES1   0.0000
  1796 O1      16.2029  26.8949  31.9421   O         1 RES1   0.0000
  1803 O1       8.4787  23.3565  28.9744   O         1 RES1   0.0000
  1804 O1       8.4787  21.2305  33.4474   O         1 RES1   0.0000
  1805 O1      11.1396  18.2735  21.2305   O         1 RES1   0.0000
  1806 O1      15.6126  18.2735  23.3565   O         1 RES1   0.0000
  1807 O1      11.1396  26.3135  23.3565   O         1 RES1   0.0000
  1808 O1      15.6126  26.3135  21.2305   O         1 RES1   0.0000
  1809 O1      14.4391  24.5300  35.2309   O         1 RES1   0.0000
  1810 O1      12.3131  20.0570  35.2309   O         1 RES1   0.0000
  1811 O1      12.3131  24.5300  27.1909   O         1 RES1   0.0000
  1812 O1      14.4391  20.0570  27.1909   O         1 RES1   0.0000
  1813 O1      17.3961  32.2739  24.5300   O         1 RES1   0.0000
  1814 O1      17.3961  30.1479  20.0570   O         1 RES1   0.0000
  1815 O1       9.3561  30.1479  24.5300   O         1 RES1   0.0000
  1816 O1       9.3561  32.2739  20.0570   O         1 RES1   0.0000
  1825 O1       9.0476  20.0873  21.2163   O         1 RES1   0.0000
  1827 O1       9.0476  24.4997  23.3707   O         1 RES1   0.0000
  1829 O1      14.4533  26.6220  33.4171   O         1 RES1   0.0000
  1830 O1      12.2989  35.7998  33.4171   O         1 RES1   0.0000
  1831 O1      12.2989  26.6220  29.0047   O         1 RES1   0.0000
  1832 O1      14.4533  35.7998  29.0047   O         1 RES1   0.0000
  1833 O1      15.5823  32.2881  26.6220   O         1 RES1   0.0000
  1834 O1      15.5823  30.1337  35.7998   O         1 RES1   0.0000
  1835 O1      11.1699  30.1337  26.6220   O         1 RES1   0.0000
  1836 O1      11.1699  32.2881  35.7998   O         1 RES1   0.0000
  1837 O1       8.7872  33.4171  32.2881   O         1 RES1   0.0000
  1838 O1      17.9650  33.4171  30.1337   O         1 RES1   0.0000
  1839 O1       8.7872  29.0047  30.1337   O         1 RES1   0.0000
  1840 O1      17.9650  29.0047  32.2881   O         1 RES1   0.0000
  1845 O1      16.2190  21.5587  27.1785   O         1 RES1   0.0000
  1846 O1      16.2190  23.0283  35.2433   O         1 RES1   0.0000
  1847 O1      10.5332  23.0283  27.1785   O         1 RES1   0.0000
  1848 O1      10.5332  21.5587  35.2433   O         1 RES1   0.0000
  1849 O1       9.3437  34.0538  21.5587   O         1 RES1   0.0000
  1850 O1      17.4085  34.0538  23.0283   O         1 RES1   0.0000
  1851 O1       9.3437  28.3680  23.0283   O         1 RES1   0.0000
  1852 O1      17.4085  28.3680  21.5587   O         1 RES1   0.0000
  1853 O1      12.6413  26.3259  25.1364   O         1 RES1   0.0000
  1854 O1      14.1109  18.2611  25.1364   O         1 RES1   0.0000
  1859 O1       8.4911  25.1364  30.4761   O         1 RES1   0.0000
  1867 C1       8.4894  23.8915  30.1248   C         1 RES1   0.0000
  1868 C1       8.4894  20.6955  32.2970   C         1 RES1   0.0000
  1869 C1      12.2900  18.2628  20.6955   C         1 RES1   0.0000
  1870 C1      14.4622  18.2628  23.8915   C         1 RES1   0.0000
  1871 C1      12.2900  26.3242  23.8915   C         1 RES1   0.0000
  1872 C1      14.4622  26.3242  20.6955   C         1 RES1   0.0000
  1873 C1      14.9741  23.3796  35.2416   C         1 RES1   0.0000
  1874 C1      11.7781  21.2074  35.2416   C         1 RES1   0.0000
  1875 C1      11.7781  23.3796  27.1802   C         1 RES1   0.0000
  1876 C1      14.9741  21.2074  27.1802   C         1 RES1   0.0000
  1877 C1      17.4068  32.8089  23.3796   C         1 RES1   0.0000
  1878 C1      17.4068  29.6129  21.2074   C         1 RES1   0.0000
  1879 C1       9.3454  29.6129  23.3796   C         1 RES1   0.0000
  1880 C1       9.3454  32.8089  21.2074   C         1 RES1   0.0000
  1891 C2       8.4840  22.9320  31.3090   C         1 RES1   0.0000
  1892 C2       8.4840  21.6550  31.1128   C         1 RES1   0.0000
  1893 C2      13.4742  18.2682  21.6550   C         1 RES1   0.0000
  1894 C2      13.2780  18.2682  22.9320   C         1 RES1   0.0000
  1895 C2      13.4742  26.3188  22.9320   C         1 RES1   0.0000
  1896 C2      13.2780  26.3188  21.6550   C         1 RES1   0.0000
  1897 C2      14.0146  22.1954  35.2362   C         1 RES1   0.0000
  1898 C2      12.7376  22.3916  35.2362   C         1 RES1   0.0000
  1899 C2      12.7376  22.1954  27.1856   C         1 RES1   0.0000
  1900 C2      14.0146  22.3916  27.1856   C         1 RES1   0.0000
  1901 C2      17.4014  31.8494  22.1954   C         1 RES1   0.0000
  1902 C2      17.4014  30.5724  22.3916   C         1 RES1   0.0000
  1903 C2       9.3508  30.5724  22.1954   C         1 RES1   0.0000
  1904 C2       9.3508  31.8494  22.3916   C         1 RES1   0.0000
  1915 H        8.4822  23.2655  32.1775   H         1 RES1   0.0000
  1916 H        8.4822  21.3215  30.2443   H         1 RES1   0.0000
  1917 H       14.3427  18.2700  21.3215   H         1 RES1   0.0000
  1918 H       12.4095  18.2700  23.2655   H         1 RES1   0.0000
  1919 H       14.3427  26.3170  23.2655   H         1 RES1   0.0000
  1920 H       12.4095  26.3170  21.3215   H         1 RES1   0.0000
  1921 H       14.3481  21.3269  35.2344   H         1 RES1   0.0000
  1922 H       12.4041  23.2601  35.2344   H         1 RES1   0.0000
  1923 H       12.4041  21.3269  27.1874   H         1 RES1   0.0000
  1924 H       14.3481  23.2601  27.1874   H         1 RES1   0.0000
  1925 H       17.3996  32.1829  21.3269   H         1 RES1   0.0000
  1926 H       17.3996  30.2389  23.2601   H         1 RES1   0.0000
  1927 H        9.3526  30.2389  21.3269   H         1 RES1   0.0000
  1928 H        9.3526  32.1829  23.2601   H         1 RES1   0.0000
  1939 C1       8.9174  23.3529  23.8951   C         1 RES1   0.0000
  1940 C1       8.9174  21.2341  20.6919   C         1 RES1   0.0000
  1945 C1      14.4355  29.6093  35.6696   C         1 RES1   0.0000
  1946 C1      12.3167  32.8125  35.6696   C         1 RES1   0.0000
  1947 C1      12.3167  29.6093  26.7522   C         1 RES1   0.0000
  1948 C1      14.4355  32.8125  26.7522   C         1 RES1   0.0000
  1949 C1      17.8348  32.2703  29.6093   C         1 RES1   0.0000
  1950 C1      17.8348  30.1515  32.8125   C         1 RES1   0.0000
  1951 C1       8.9174  30.1515  29.6093   C         1 RES1   0.0000
  1952 C1       8.9174  32.2703  32.8125   C         1 RES1   0.0000
  1953 C1      11.7745  35.6696  32.2703   C         1 RES1   0.0000
  1954 C1      14.9777  35.6696  30.1515   C         1 RES1   0.0000
  1955 C1      11.7745  26.7522  30.1515   C         1 RES1   0.0000
  1956 C1      14.9777  26.7522  32.2703   C         1 RES1   0.0000
  1963 C2       8.9156  22.1740  22.9445   C         1 RES1   0.0000
  1964 C2       8.9156  22.4130  21.6425   C         1 RES1   0.0000
  1969 C2      13.2566  30.5599  35.6678   C         1 RES1   0.0000
  1970 C2      13.4956  31.8619  35.6678   C         1 RES1   0.0000
  1971 C2      13.4956  30.5599  26.7540   C         1 RES1   0.0000
  1972 C2      13.2566  31.8619  26.7540   C         1 RES1   0.0000
  1973 C2      17.8330  31.0914  30.5599   C         1 RES1   0.0000
  1974 C2      17.8330  31.3304  31.8619   C         1 RES1   0.0000
  1975 C2       8.9192  31.3304  30.5599   C         1 RES1   0.0000
  1976 C2       8.9192  31.0914  31.8619   C         1 RES1   0.0000
  1977 C2      12.7251  35.6678  31.0914   C         1 RES1   0.0000
  1978 C2      14.0271  35.6678  31.3304   C         1 RES1   0.0000
  1979 C2      12.7251  26.7540  31.3304   C         1 RES1   0.0000
  1980 C2      14.0271  26.7540  31.0914   C         1 RES1   0.0000
  1987 H        8.9156  21.3019  23.2673   H         1 RES1   0.0000
  1988 H        8.9156  23.2851  21.3197   H         1 RES1   0.0000
  1993 H       12.3845  30.2371  35.6678   H         1 RES1   0.0000
  1994 H       14.3677  32.1847  35.6678   H         1 RES1   0.0000
  1995 H       14.3677  30.2371  26.7540   H         1 RES1   0.0000
  1996 H       12.3845  32.1847  26.7540   H         1 RES1   0.0000
  1997 H       17.8330  30.2193  30.2371   H         1 RES1   0.0000
  1998 H       17.8330  32.2025  32.1847   H         1 RES1   0.0000
  1999 H        8.9192  32.2025  30.2371   H         1 RES1   0.0000
  2000 H        8.9192  30.2193  32.1847   H         1 RES1   0.0000
  2001 H       12.4023  35.6678  30.2193   H         1 RES1   0.0000
  2002 H       14.3499  35.6678  32.2025   H         1 RES1   0.0000
  2003 H       12.4023  26.7540  32.2025   H         1 RES1   0.0000
  2004 H       14.3499  26.7540  30.2193   H         1 RES1   0.0000
  2009 O2      16.6809  19.1992  28.3877   O         1 RES1   0.0000
  2010 O2      16.6809  25.3878  34.0341   O         1 RES1   0.0000
  2011 O2      10.0713  25.3878  28.3877   O         1 RES1   0.0000
  2012 O2      10.5529  34.5157  19.1992   O         1 RES1   0.0000
  2013 O2      16.1993  34.5157  25.3878   O         1 RES1   0.0000
  2014 O2      10.5529  27.9061  25.3878   O         1 RES1   0.0000
  2015 O2      10.2818  25.1167  25.5983   O         1 RES1   0.0000
  2016 O2      16.4704  19.4703  25.5983   O         1 RES1   0.0000
  2047 O2      16.4348  28.1522  34.2696   O         1 RES1   0.0000
  2048 O2      10.3174  34.2696  34.2696   O         1 RES1   0.0000
  2049 O2      10.3174  28.1522  28.1522   O         1 RES1   0.0000
  2050 O2      16.4348  34.2696  28.1522   O         1 RES1   0.0000
  2052 Zr      20.2933  26.9507  18.0467   Z         1 RES1   0.0000
  2054 Zr      20.2933  35.4711  26.5403   Z         1 RES1   0.0000
  2056 Zr      18.0467  20.2933  26.9507   Z         1 RES1   0.0000
  2057 Zr      18.0467  24.2937  35.4711   Z         1 RES1   0.0000
  2058 Zr       8.7055  38.1281  35.4711   Z         1 RES1   0.0000
  2059 Zr       9.1159  35.8815  20.2933   Z         1 RES1   0.0000
  2061 Zr      17.6363  35.8815  24.2937   Z         1 RES1   0.0000
  2063 Zr      17.6363  26.5403  38.1281   Z         1 RES1   0.0000
  2065 Zr      11.3759  35.8681  35.4577   Z         1 RES1   0.0000
  2067 Zr      15.3763  35.8681  26.9641   Z         1 RES1   0.0000
  2070 Zr      17.6229  29.2107  35.8681   Z         1 RES1   0.0000
  2071 Zr       9.1293  33.2111  35.8681   Z         1 RES1   0.0000
  2072 Zr      18.0333  35.4577  29.2107   Z         1 RES1   0.0000
  2073 Zr      18.0333  26.9641  33.2111   Z         1 RES1   0.0000
  2077 O1       8.7747  21.5623  37.3015   O         1 RES1   0.0000
  2078 O1      19.4667  17.9775  23.0247   O         1 RES1   0.0000
  2079 O1      19.4667  26.6095  21.5623   O         1 RES1   0.0000
  2086 O1      17.7046  20.0873  23.3707   O         1 RES1   0.0000
  2087 O1      17.7046  24.4997  21.2163   O         1 RES1   0.0000
  2092 O1      14.1109  26.3259  37.2854   O         1 RES1   0.0000
  2093 O1      12.6413  18.2611  37.2854   O         1 RES1   0.0000
  2094 O1      19.4506  31.9457  26.3259   O         1 RES1   0.0000
  2095 O1      19.4506  30.4761  18.2611   O         1 RES1   0.0000
  2096 O1       8.4911  37.2854  31.9457   O         1 RES1   0.0000
  2098 O2      19.1992  28.3877  16.6809   O         1 RES1   0.0000
  2099 O2      19.1992  34.0341  27.9061   O         1 RES1   0.0000
  2102 O2      10.0713  37.0340  34.0341   O         1 RES1   0.0000
  2103 O2      16.1993  27.9061  37.0340   O         1 RES1   0.0000
  2105 O2      16.4704  25.1167  36.8235   O         1 RES1   0.0000
  2106 O2      10.2818  19.4703  36.8235   O         1 RES1   0.0000
  2108 O2      18.9887  34.3052  25.1167   O         1 RES1   0.0000
  2109 O2      18.9887  28.1166  19.4703   O         1 RES1   0.0000
  2134 O2      19.2348  25.3522  19.2348   O         1 RES1   0.0000
  2137 O2      19.2348  19.2348  25.3522   O         1 RES1   0.0000
  2144 Zr       9.1159  26.5403  42.1285   Z         1 RES1   0.0000
  2156 O1       8.7747  23.0247  42.9551   O         1 RES1   0.0000
  2181 O1      11.1396  18.2735  39.0653   O         1 RES1   0.0000
  2182 O1      15.6126  18.2735  41.1913   O         1 RES1   0.0000
  2183 O1      11.1396  26.3135  41.1913   O         1 RES1   0.0000
  2184 O1      15.6126  26.3135  39.0653   O         1 RES1   0.0000
  2189 O1      17.3961  32.2739  42.3648   O         1 RES1   0.0000
  2190 O1      17.3961  30.1479  37.8918   O         1 RES1   0.0000
  2191 O1       9.3561  30.1479  42.3648   O         1 RES1   0.0000
  2192 O1       9.3561  32.2739  37.8918   O         1 RES1   0.0000
  2201 O1       9.0476  20.0873  39.0511   O         1 RES1   0.0000
  2203 O1       9.0476  24.4997  41.2055   O         1 RES1   0.0000
  2225 O1       9.3437  34.0538  39.3935   O         1 RES1   0.0000
  2226 O1      17.4085  34.0538  40.8631   O         1 RES1   0.0000
  2227 O1       9.3437  28.3680  40.8631   O         1 RES1   0.0000
  2228 O1      17.4085  28.3680  39.3935   O         1 RES1   0.0000
  2229 O1      12.6413  26.3259  42.9712   O         1 RES1   0.0000
  2230 O1      14.1109  18.2611  42.9712   O         1 RES1   0.0000
  2245 C1      12.2900  18.2628  38.5303   C         1 RES1   0.0000
  2246 C1      14.4622  18.2628  41.7263   C         1 RES1   0.0000
  2247 C1      12.2900  26.3242  41.7263   C         1 RES1   0.0000
  2248 C1      14.4622  26.3242  38.5303   C         1 RES1   0.0000
  2253 C1      17.4068  32.8089  41.2144   C         1 RES1   0.0000
  2254 C1      17.4068  29.6129  39.0422   C         1 RES1   0.0000
  2255 C1       9.3454  29.6129  41.2144   C         1 RES1   0.0000
  2256 C1       9.3454  32.8089  39.0422   C         1 RES1   0.0000
  2269 C2      13.4742  18.2682  39.4898   C         1 RES1   0.0000
  2270 C2      13.2780  18.2682  40.7668   C         1 RES1   0.0000
  2271 C2      13.4742  26.3188  40.7668   C         1 RES1   0.0000
  2272 C2      13.2780  26.3188  39.4898   C         1 RES1   0.0000
  2277 C2      17.4014  31.8494  40.0302   C         1 RES1   0.0000
  2278 C2      17.4014  30.5724  40.2264   C         1 RES1   0.0000
  2279 C2       9.3508  30.5724  40.0302   C         1 RES1   0.0000
  2280 C2       9.3508  31.8494  40.2264   C         1 RES1   0.0000
  2293 H       14.3427  18.2700  39.1563   H         1 RES1   0.0000
  2294 H       12.4095  18.2700  41.1003   H         1 RES1   0.0000
  2295 H       14.3427  26.3170  41.1003   H         1 RES1   0.0000
  2296 H       12.4095  26.3170  39.1563   H         1 RES1   0.0000
  2301 H       17.3996  32.1829  39.1617   H         1 RES1   0.0000
  2302 H       17.3996  30.2389  41.0949   H         1 RES1   0.0000
  2303 H        9.3526  30.2389  39.1617   H         1 RES1   0.0000
  2304 H        9.3526  32.1829  41.0949   H         1 RES1   0.0000
  2315 C1       8.9174  23.3529  41.7299   C         1 RES1   0.0000
  2316 C1       8.9174  21.2341  38.5267   C         1 RES1   0.0000
  2339 C2       8.9156  22.1740  40.7793   C         1 RES1   0.0000
  2340 C2       8.9156  22.4130  39.4773   C         1 RES1   0.0000
  2363 H        8.9156  21.3019  41.1021   H         1 RES1   0.0000
  2364 H        8.9156  23.2851  39.1545   H         1 RES1   0.0000
  2388 O2      10.5529  34.5157  37.0340   O         1 RES1   0.0000
  2389 O2      16.1993  34.5157  43.2226   O         1 RES1   0.0000
  2390 O2      10.5529  27.9061  43.2226   O         1 RES1   0.0000
  2391 O2      10.2818  25.1167  43.4331   O         1 RES1   0.0000
  2392 O2      16.4704  19.4703  43.4331   O         1 RES1   0.0000
  2428 Zr      20.2933  26.9507  35.8815   Z         1 RES1   0.0000
  2436 Zr       9.1159  35.8815  38.1281   Z         1 RES1   0.0000
  2438 Zr      17.6363  35.8815  42.1285   Z         1 RES1   0.0000
  2455 O1      19.4667  17.9775  40.8595   O         1 RES1   0.0000
  2456 O1      19.4667  26.6095  39.3971   O         1 RES1   0.0000
  2463 O1      17.7046  20.0873  41.2055   O         1 RES1   0.0000
  2464 O1      17.7046  24.4997  39.0511   O         1 RES1   0.0000
  2472 O1      19.4506  30.4761  36.0959   O         1 RES1   0.0000
  2475 O2      19.1992  28.3877  34.5157   O         1 RES1   0.0000
  2486 O2      18.9887  34.3052  42.9515   O         1 RES1   0.0000
  2487 O2      18.9887  28.1166  37.3051   O         1 RES1   0.0000
  2514 O2      19.2348  25.3522  37.0696   O         1 RES1   0.0000
  2518 O2      19.2348  19.2348  43.1870   O         1 RES1   0.0000
  2526 Zr       8.7055  42.1285   9.1159   Z         1 RES1   0.0000
  2567 O1       8.4787  41.1913  11.1396   O         1 RES1   0.0000
  2568 O1       8.4787  39.0653  15.6126   O         1 RES1   0.0000
  2573 O1      14.4391  42.3648  17.3961   O         1 RES1   0.0000
  2574 O1      12.3131  37.8918  17.3961   O         1 RES1   0.0000
  2575 O1      12.3131  42.3648   9.3561   O         1 RES1   0.0000
  2576 O1      14.4391  37.8918   9.3561   O         1 RES1   0.0000
  2611 O1      16.2190  39.3935   9.3437   O         1 RES1   0.0000
  2612 O1      16.2190  40.8631  17.4085   O         1 RES1   0.0000
  2613 O1      10.5332  40.8631   9.3437   O         1 RES1   0.0000
  2614 O1      10.5332  39.3935  17.4085   O         1 RES1   0.0000
  2627 O1       8.4911  42.9712  12.6413   O         1 RES1   0.0000
  2635 C1       8.4894  41.7263  12.2900   C         1 RES1   0.0000
  2636 C1       8.4894  38.5303  14.4622   C         1 RES1   0.0000
  2641 C1      14.9741  41.2144  17.4068   C         1 RES1   0.0000
  2642 C1      11.7781  39.0422  17.4068   C         1 RES1   0.0000
  2643 C1      11.7781  41.2144   9.3454   C         1 RES1   0.0000
  2644 C1      14.9741  39.0422   9.3454   C         1 RES1   0.0000
  2659 C2       8.4840  40.7668  13.4742   C         1 RES1   0.0000
  2660 C2       8.4840  39.4898  13.2780   C         1 RES1   0.0000
  2665 C2      14.0146  40.0302  17.4014   C         1 RES1   0.0000
  2666 C2      12.7376  40.2264  17.4014   C         1 RES1   0.0000
  2667 C2      12.7376  40.0302   9.3508   C         1 RES1   0.0000
  2668 C2      14.0146  40.2264   9.3508   C         1 RES1   0.0000
  2683 H        8.4822  41.1003  14.3427   H         1 RES1   0.0000
  2684 H        8.4822  39.1563  12.4095   H         1 RES1   0.0000
  2689 H       14.3481  39.1617  17.3996   H         1 RES1   0.0000
  2690 H       12.4041  41.0949  17.3996   H         1 RES1   0.0000
  2691 H       12.4041  39.1617   9.3526   H         1 RES1   0.0000
  2692 H       14.3481  41.0949   9.3526   H         1 RES1   0.0000
  2777 O2      16.6809  37.0340  10.5529   O         1 RES1   0.0000
  2778 O2      16.6809  43.2226  16.1993   O         1 RES1   0.0000
  2779 O2      10.0713  43.2226  10.5529   O         1 RES1   0.0000
  2832 Zr      18.0467  38.1281   9.1159   Z         1 RES1   0.0000
  2835 Zr      18.0467  42.1285  17.6363   Z         1 RES1   0.0000
  2863 O1       8.7747  39.3971  19.4667   O         1 RES1   0.0000
  2885 O1      12.6413  36.0959  19.4506   O         1 RES1   0.0000
  2899 O2      16.4704  42.9515  18.9887   O         1 RES1   0.0000
  2900 O2      10.2818  37.3051  18.9887   O         1 RES1   0.0000
  2947 Zr       8.7055  42.1285  26.9507   Z         1 RES1   0.0000
  2960 O1       8.7747  40.8595  25.1203   O         1 RES1   0.0000
  2983 O1       8.4787  41.1913  28.9744   O         1 RES1   0.0000
  2984 O1       8.4787  39.0653  33.4474   O         1 RES1   0.0000
  2985 O1      11.1396  36.1083  21.2305   O         1 RES1   0.0000
  2986 O1      15.6126  36.1083  23.3565   O         1 RES1   0.0000
  2989 O1      14.4391  42.3648  35.2309   O         1 RES1   0.0000
  2990 O1      12.3131  37.8918  35.2309   O         1 RES1   0.0000
  2991 O1      12.3131  42.3648  27.1909   O         1 RES1   0.0000
  2992 O1      14.4391  37.8918  27.1909   O         1 RES1   0.0000
  3005 O1       9.0476  37.9221  21.2163   O         1 RES1   0.0000
  3007 O1       9.0476  42.3345  23.3707   O         1 RES1   0.0000
  3025 O1      16.2190  39.3935  27.1785   O         1 RES1   0.0000
  3026 O1      16.2190  40.8631  35.2433   O         1 RES1   0.0000
  3027 O1      10.5332  40.8631  27.1785   O         1 RES1   0.0000
  3028 O1      10.5332  39.3935  35.2433   O         1 RES1   0.0000
  3034 O1      14.1109  36.0959  25.1364   O         1 RES1   0.0000
  3039 O1       8.4911  42.9712  30.4761   O         1 RES1   0.0000
  3047 C1       8.4894  41.7263  30.1248   C         1 RES1   0.0000
  3048 C1       8.4894  38.5303  32.2970   C         1 RES1   0.0000
  3049 C1      12.2900  36.0976  20.6955   C         1 RES1   0.0000
  3050 C1      14.4622  36.0976  23.8915   C         1 RES1   0.0000
  3053 C1      14.9741  41.2144  35.2416   C         1 RES1   0.0000
  3054 C1      11.7781  39.0422  35.2416   C         1 RES1   0.0000
  3055 C1      11.7781  41.2144  27.1802   C         1 RES1   0.0000
  3056 C1      14.9741  39.0422  27.1802   C         1 RES1   0.0000
  3071 C2       8.4840  40.7668  31.3090   C         1 RES1   0.0000
  3072 C2       8.4840  39.4898  31.1128   C         1 RES1   0.0000
  3073 C2      13.4742  36.1030  21.6550   C         1 RES1   0.0000
  3074 C2      13.2780  36.1030  22.9320   C         1 RES1   0.0000
  3077 C2      14.0146  40.0302  35.2362   C         1 RES1   0.0000
  3078 C2      12.7376  40.2264  35.2362   C         1 RES1   0.0000
  3079 C2      12.7376  40.0302  27.1856   C         1 RES1   0.0000
  3080 C2      14.0146  40.2264  27.1856   C         1 RES1   0.0000
  3095 H        8.4822  41.1003  32.1775   H         1 RES1   0.0000
  3096 H        8.4822  39.1563  30.2443   H         1 RES1   0.0000
  3097 H       14.3427  36.1048  21.3215   H         1 RES1   0.0000
  3098 H       12.4095  36.1048  23.2655   H         1 RES1   0.0000
  3101 H       14.3481  39.1617  35.2344   H         1 RES1   0.0000
  3102 H       12.4041  41.0949  35.2344   H         1 RES1   0.0000
  3103 H       12.4041  39.1617  27.1874   H         1 RES1   0.0000
  3104 H       14.3481  41.0949  27.1874   H         1 RES1   0.0000
  3119 C1       8.9174  41.1877  23.8951   C         1 RES1   0.0000
  3120 C1       8.9174  39.0689  20.6919   C         1 RES1   0.0000
  3143 C2       8.9156  40.0088  22.9445   C         1 RES1   0.0000
  3144 C2       8.9156  40.2478  21.6425   C         1 RES1   0.0000
  3167 H        8.9156  39.1367  23.2673   H         1 RES1   0.0000
  3168 H        8.9156  41.1199  21.3197   H         1 RES1   0.0000
  3189 O2      16.6809  37.0340  28.3877   O         1 RES1   0.0000
  3190 O2      16.6809  43.2226  34.0341   O         1 RES1   0.0000
  3191 O2      10.0713  43.2226  28.3877   O         1 RES1   0.0000
  3195 O2      10.2818  42.9515  25.5983   O         1 RES1   0.0000
  3196 O2      16.4704  37.3051  25.5983   O         1 RES1   0.0000
  3236 Zr      18.0467  38.1281  26.9507   Z         1 RES1   0.0000
  3237 Zr      18.0467  42.1285  35.4711   Z         1 RES1   0.0000
  3257 O1       8.7747  39.3971  37.3015   O         1 RES1   0.0000
  3258 O1      19.4667  35.8123  23.0247   O         1 RES1   0.0000
  3266 O1      17.7046  37.9221  23.3707   O         1 RES1   0.0000
  3267 O1      17.7046  42.3345  21.2163   O         1 RES1   0.0000
  3273 O1      12.6413  36.0959  37.2854   O         1 RES1   0.0000
  3285 O2      16.4704  42.9515  36.8235   O         1 RES1   0.0000
  3286 O2      10.2818  37.3051  36.8235   O         1 RES1   0.0000
  3314 O2      19.2348  43.1870  19.2348   O         1 RES1   0.0000
  3317 O2      19.2348  37.0696  25.3522   O         1 RES1   0.0000
  3336 O1       8.7747  40.8595  42.9551   O         1 RES1   0.0000
  3361 O1      11.1396  36.1083  39.0653   O         1 RES1   0.0000
  3362 O1      15.6126  36.1083  41.1913   O         1 RES1   0.0000
  3381 O1       9.0476  37.9221  39.0511   O         1 RES1   0.0000
  3383 O1       9.0476  42.3345  41.2055   O         1 RES1   0.0000
  3410 O1      14.1109  36.0959  42.9712   O         1 RES1   0.0000
  3425 C1      12.2900  36.0976  38.5303   C         1 RES1   0.0000
  3426 C1      14.4622  36.0976  41.7263   C         1 RES1   0.0000
  3449 C2      13.4742  36.1030  39.4898   C         1 RES1   0.0000
  3450 C2      13.2780  36.1030  40.7668   C         1 RES1   0.0000
  3473 H       14.3427  36.1048  39.1563   H         1 RES1   0.0000
  3474 H       12.4095  36.1048  41.1003   H         1 RES1   0.0000
  3495 C1       8.9174  41.1877  41.7299   C         1 RES1   0.0000
  3496 C1       8.9174  39.0689  38.5267   C         1 RES1   0.0000
  3519 C2       8.9156  40.0088  40.7793   C         1 RES1   0.0000
  3520 C2       8.9156  40.2478  39.4773   C         1 RES1   0.0000
  3543 H        8.9156  39.1367  41.1021   H         1 RES1   0.0000
  3544 H        8.9156  41.1199  39.1545   H         1 RES1   0.0000
  3571 O2      10.2818  42.9515  43.4331   O         1 RES1   0.0000
  3572 O2      16.4704  37.3051  43.4331   O         1 RES1   0.0000
  3635 O1      19.4667  35.8123  40.8595   O         1 RES1   0.0000
  3643 O1      17.7046  37.9221  41.2055   O         1 RES1   0.0000
  3644 O1      17.7046  42.3345  39.0511   O         1 RES1   0.0000
  3694 O2      19.2348  43.1870  37.0696   O         1 RES1   0.0000
  3698 O2      19.2348  37.0696  43.1870   O         1 RES1   0.0000
  3702 Zr      24.2937   9.1159   8.7055   Z         1 RES1   0.0000
  3709 Zr      33.2111   8.7189  17.6229   Z         1 RES1   0.0000
  3711 Zr      29.2107   8.7189   9.1293   Z         1 RES1   0.0000
  3713 Zr      35.4577  15.3763   8.7189   Z         1 RES1   0.0000
  3715 Zr      26.9641  11.3759   8.7189   Z         1 RES1   0.0000
  3717 Zr      26.5537  17.6229  15.3763   Z         1 RES1   0.0000
  3718 Zr      26.5537   9.1293  11.3759   Z         1 RES1   0.0000
  3729 O1      31.9421  10.5493  17.6921   O         1 RES1   0.0000
  3730 O1      30.4797  16.2029  17.6921   O         1 RES1   0.0000
  3731 O1      30.4797  10.5493   9.0601   O         1 RES1   0.0000
  3732 O1      31.9421  16.2029   9.0601   O         1 RES1   0.0000
  3733 O1      35.5269  14.1073  10.5493   O         1 RES1   0.0000
  3734 O1      35.5269  12.6449  16.2029   O         1 RES1   0.0000
  3735 O1      26.8949  12.6449  10.5493   O         1 RES1   0.0000
  3736 O1      26.8949  14.1073  16.2029   O         1 RES1   0.0000
  3737 O1      28.3841  17.6921  14.1073   O         1 RES1   0.0000
  3738 O1      34.0377  17.6921  12.6449   O         1 RES1   0.0000
  3739 O1      28.3841   9.0601  12.6449   O         1 RES1   0.0000
  3740 O1      34.0377   9.0601  14.1073   O         1 RES1   0.0000
  3743 O1      23.3565  11.1396   8.4787   O         1 RES1   0.0000
  3744 O1      21.2305  15.6126   8.4787   O         1 RES1   0.0000
  3761 O1      24.5300  17.3961  14.4391   O         1 RES1   0.0000
  3762 O1      20.0570  17.3961  12.3131   O         1 RES1   0.0000
  3763 O1      24.5300   9.3561  12.3131   O         1 RES1   0.0000
  3764 O1      20.0570   9.3561  14.4391   O         1 RES1   0.0000
  3775 O1      32.2881   8.7872  15.5823   O         1 RES1   0.0000
  3776 O1      30.1337  17.9650  15.5823   O         1 RES1   0.0000
  3777 O1      30.1337   8.7872  11.1699   O         1 RES1   0.0000
  3778 O1      32.2881  17.9650  11.1699   O         1 RES1   0.0000
  3779 O1      33.4171  14.4533   8.7872   O         1 RES1   0.0000
  3780 O1      33.4171  12.2989  17.9650   O         1 RES1   0.0000
  3781 O1      29.0047  12.2989   8.7872   O         1 RES1   0.0000
  3782 O1      29.0047  14.4533  17.9650   O         1 RES1   0.0000
  3783 O1      26.6220  15.5823  14.4533   O         1 RES1   0.0000
  3784 O1      35.7998  15.5823  12.2989   O         1 RES1   0.0000
  3785 O1      26.6220  11.1699  12.2989   O         1 RES1   0.0000
  3786 O1      35.7998  11.1699  14.4533   O         1 RES1   0.0000
  3787 O1      21.5587   9.3437  16.2190   O         1 RES1   0.0000
  3788 O1      23.0283  17.4085  16.2190   O         1 RES1   0.0000
  3789 O1      23.0283   9.3437  10.5332   O         1 RES1   0.0000
  3790 O1      21.5587  17.4085  10.5332   O         1 RES1   0.0000
  3803 O1      25.1364  12.6413   8.4911   O         1 RES1   0.0000
  3811 C1      23.8915  12.2900   8.4894   C         1 RES1   0.0000
  3812 C1      20.6955  14.4622   8.4894   C         1 RES1   0.0000
  3829 C1      23.3796  17.4068  14.9741   C         1 RES1   0.0000
  3830 C1      21.2074  17.4068  11.7781   C         1 RES1   0.0000
  3831 C1      23.3796   9.3454  11.7781   C         1 RES1   0.0000
  3832 C1      21.2074   9.3454  14.9741   C         1 RES1   0.0000
  3835 C2      22.9320  13.4742   8.4840   C         1 RES1   0.0000
  3836 C2      21.6550  13.2780   8.4840   C         1 RES1   0.0000
  3853 C2      22.1954  17.4014  14.0146   C         1 RES1   0.0000
  3854 C2      22.3916  17.4014  12.7376   C         1 RES1   0.0000
  3855 C2      22.1954   9.3508  12.7376   C         1 RES1   0.0000
  3856 C2      22.3916   9.3508  14.0146   C         1 RES1   0.0000
  3859 H       23.2655  14.3427   8.4822   H         1 RES1   0.0000
  3860 H       21.3215  12.4095   8.4822   H         1 RES1   0.0000
  3877 H       21.3269  17.3996  14.3481   H         1 RES1   0.0000
  3878 H       23.2601  17.3996  12.4041   H         1 RES1   0.0000
  3879 H       21.3269   9.3526  12.4041   H         1 RES1   0.0000
  3880 H       23.2601   9.3526  14.3481   H         1 RES1   0.0000
  3893 C1      32.2703  11.7745  17.8348   C         1 RES1   0.0000
  3894 C1      30.1515  14.9777  17.8348   C         1 RES1   0.0000
  3895 C1      30.1515  11.7745   8.9174   C         1 RES1   0.0000
  3896 C1      32.2703  14.9777   8.9174   C         1 RES1   0.0000
  3897 C1      35.6696  14.4355  11.7745   C         1 RES1   0.0000
  3898 C1      35.6696  12.3167  14.9777   C         1 RES1   0.0000
  3899 C1      26.7522  12.3167  11.7745   C         1 RES1   0.0000
  3900 C1      26.7522  14.4355  14.9777   C         1 RES1   0.0000
  3901 C1      29.6093  17.8348  14.4355   C         1 RES1   0.0000
  3902 C1      32.8125  17.8348  12.3167   C         1 RES1   0.0000
  3903 C1      29.6093   8.9174  12.3167   C         1 RES1   0.0000
  3904 C1      32.8125   8.9174  14.4355   C         1 RES1   0.0000
  3917 C2      31.0914  12.7251  17.8330   C         1 RES1   0.0000
  3918 C2      31.3304  14.0271  17.8330   C         1 RES1   0.0000
  3919 C2      31.3304  12.7251   8.9192   C         1 RES1   0.0000
  3920 C2      31.0914  14.0271   8.9192   C         1 RES1   0.0000
  3921 C2      35.6678  13.2566  12.7251   C         1 RES1   0.0000
  3922 C2      35.6678  13.4956  14.0271   C         1 RES1   0.0000
  3923 C2      26.7540  13.4956  12.7251   C         1 RES1   0.0000
  3924 C2      26.7540  13.2566  14.0271   C         1 RES1   0.0000
  3925 C2      30.5599  17.8330  13.2566   C         1 RES1   0.0000
  3926 C2      31.8619  17.8330  13.4956   C         1 RES1   0.0000
  3927 C2      30.5599   8.9192  13.4956   C         1 RES1   0.0000
  3928 C2      31.8619   8.9192  13.2566   C         1 RES1   0.0000
  3941 H       30.2193  12.4023  17.8330   H         1 RES1   0.0000
  3942 H       32.2025  14.3499  17.8330   H         1 RES1   0.0000
  3943 H       32.2025  12.4023   8.9192   H         1 RES1   0.0000
  3944 H       30.2193  14.3499   8.9192   H         1 RES1   0.0000
  3945 H       35.6678  12.3845  12.4023   H         1 RES1   0.0000
  3946 H       35.6678  14.3677  14.3499   H         1 RES1   0.0000
  3947 H       26.7540  14.3677  12.4023   H         1 RES1   0.0000
  3948 H       26.7540  12.3845  14.3499   H         1 RES1   0.0000
  3949 H       30.2371  17.8330  12.3845   H         1 RES1   0.0000
  3950 H       32.1847  17.8330  14.3677   H         1 RES1   0.0000
  3951 H       30.2371   8.9192  14.3677   H         1 RES1   0.0000
  3952 H       32.1847   8.9192  12.3845   H         1 RES1   0.0000
  3953 O2      25.3878  16.1993  16.6809   O         1 RES1   0.0000
  3954 O2      25.3878  10.5529  10.0713   O         1 RES1   0.0000
  4001 O2      34.2696  10.3174  16.4348   O         1 RES1   0.0000
  4002 O2      28.1522  16.4348  16.4348   O         1 RES1   0.0000
  4003 O2      28.1522  10.3174  10.3174   O         1 RES1   0.0000
  4004 O2      34.2696  16.4348  10.3174   O         1 RES1   0.0000
  4008 Zr      24.2937  17.6363  18.0467   Z         1 RES1   0.0000
  4010 Zr      38.1281  17.6363   8.7055   Z         1 RES1   0.0000
  4016 Zr      26.5403  20.2933  17.6363   Z         1 RES1   0.0000
  4020 Zr      35.4711   8.7055  20.2933   Z         1 RES1   0.0000
  4024 Zr      29.2107  18.0333  17.6229   Z         1 RES1   0.0000
  4025 Zr      33.2111  18.0333   9.1293   Z         1 RES1   0.0000
  4027 Zr      35.4577  11.3759  18.0333   Z         1 RES1   0.0000
  4030 Zr      26.9641  15.3763  18.0333   Z         1 RES1   0.0000
  4034 Zr      35.8681  17.6229  11.3759   Z         1 RES1   0.0000
  4036 Zr      35.8681   9.1293  15.3763   Z         1 RES1   0.0000
  4038 O1      21.5623  19.4667   8.7747   O         1 RES1   0.0000
  4061 O1      31.9457   8.4911  19.4506   O         1 RES1   0.0000
  4063 O1      37.2854  14.1109   8.4911   O         1 RES1   0.0000
  4065 O1      26.3259  19.4506  14.1109   O         1 RES1   0.0000
  4066 O1      18.2611  19.4506  12.6413   O         1 RES1   0.0000
  4069 O2      37.0340  16.1993  10.0713   O         1 RES1   0.0000
  4070 O2      27.9061  19.1992  16.1993   O         1 RES1   0.0000
  4074 O2      34.0341  10.0713  19.1992   O         1 RES1   0.0000
  4082 O2      25.1167  18.9887  16.4704   O         1 RES1   0.0000
  4083 O2      19.4703  18.9887  10.2818   O         1 RES1   0.0000
  4119 Zr      24.2937   9.1159  26.5403   Z         1 RES1   0.0000
  4123 Zr      26.9507   8.7055  24.2937   Z         1 RES1   0.0000
  4124 Zr      33.2111   8.7189  35.4577   Z         1 RES1   0.0000
  4126 Zr      29.2107   8.7189  26.9641   Z         1 RES1   0.0000
  4128 Zr      35.4577  15.3763  26.5537   Z         1 RES1   0.0000
  4129 Zr      26.9641  11.3759  26.5537   Z         1 RES1   0.0000
  4130 Zr      26.5537  17.6229  33.2111   Z         1 RES1   0.0000
  4131 Zr      26.5537   9.1293  29.2107   Z         1 RES1   0.0000
  4139 O1      25.1203   8.7747  23.0247   O         1 RES1   0.0000
  4140 O1      31.9421  10.5493  35.5269   O         1 RES1   0.0000
  4141 O1      30.4797  16.2029  35.5269   O         1 RES1   0.0000
  4142 O1      30.4797  10.5493  26.8949   O         1 RES1   0.0000
  4143 O1      31.9421  16.2029  26.8949   O         1 RES1   0.0000
  4144 O1      35.5269  14.1073  28.3841   O         1 RES1   0.0000
  4145 O1      35.5269  12.6449  34.0377   O         1 RES1   0.0000
  4146 O1      26.8949  12.6449  28.3841   O         1 RES1   0.0000
  4147 O1      26.8949  14.1073  34.0377   O         1 RES1   0.0000
  4148 O1      28.3841  17.6921  31.9421   O         1 RES1   0.0000
  4149 O1      34.0377  17.6921  30.4797   O         1 RES1   0.0000
  4150 O1      28.3841   9.0601  30.4797   O         1 RES1   0.0000
  4151 O1      34.0377   9.0601  31.9421   O         1 RES1   0.0000
  4152 O1      21.2305  11.1396  18.2735   O         1 RES1   0.0000
  4153 O1      23.3565  15.6126  18.2735   O         1 RES1   0.0000
  4154 O1      23.3565  11.1396  26.3135   O         1 RES1   0.0000
  4155 O1      21.2305  15.6126  26.3135   O         1 RES1   0.0000
  4162 O1      28.9744   8.4787  23.3565   O         1 RES1   0.0000
  4163 O1      33.4474   8.4787  21.2305   O         1 RES1   0.0000
  4168 O1      35.2309  14.4391  24.5300   O         1 RES1   0.0000
  4169 O1      35.2309  12.3131  20.0570   O         1 RES1   0.0000
  4170 O1      27.1909  12.3131  24.5300   O         1 RES1   0.0000
  4171 O1      27.1909  14.4391  20.0570   O         1 RES1   0.0000
  4172 O1      24.5300  17.3961  32.2739   O         1 RES1   0.0000
  4173 O1      20.0570  17.3961  30.1479   O         1 RES1   0.0000
  4174 O1      24.5300   9.3561  30.1479   O         1 RES1   0.0000
  4175 O1      20.0570   9.3561  32.2739   O         1 RES1   0.0000
  4176 O1      21.2163   9.0476  20.0873   O         1 RES1   0.0000
  4178 O1      23.3707   9.0476  24.4997   O         1 RES1   0.0000
  4184 O1      32.2881   8.7872  33.4171   O         1 RES1   0.0000
  4185 O1      30.1337  17.9650  33.4171   O         1 RES1   0.0000
  4186 O1      30.1337   8.7872  29.0047   O         1 RES1   0.0000
  4187 O1      32.2881  17.9650  29.0047   O         1 RES1   0.0000
  4188 O1      33.4171  14.4533  26.6220   O         1 RES1   0.0000
  4189 O1      33.4171  12.2989  35.7998   O         1 RES1   0.0000
  4190 O1      29.0047  12.2989  26.6220   O         1 RES1   0.0000
  4191 O1      29.0047  14.4533  35.7998   O         1 RES1   0.0000
  4192 O1      26.6220  15.5823  32.2881   O         1 RES1   0.0000
  4193 O1      35.7998  15.5823  30.1337   O         1 RES1   0.0000
  4194 O1      26.6220  11.1699  30.1337   O         1 RES1   0.0000
  4195 O1      35.7998  11.1699  32.2881   O         1 RES1   0.0000
  4196 O1      21.5587   9.3437  34.0538   O         1 RES1   0.0000
  4197 O1      23.0283  17.4085  34.0538   O         1 RES1   0.0000
  4198 O1      23.0283   9.3437  28.3680   O         1 RES1   0.0000
  4199 O1      21.5587  17.4085  28.3680   O         1 RES1   0.0000
  4204 O1      27.1785  16.2190  21.5587   O         1 RES1   0.0000
  4205 O1      35.2433  16.2190  23.0283   O         1 RES1   0.0000
  4206 O1      27.1785  10.5332  23.0283   O         1 RES1   0.0000
  4207 O1      35.2433  10.5332  21.5587   O         1 RES1   0.0000
  4208 O1      30.4761   8.4911  25.1364   O         1 RES1   0.0000
  4210 O1      25.1364  12.6413  26.3259   O         1 RES1   0.0000
  4211 O1      25.1364  14.1109  18.2611   O         1 RES1   0.0000
  4216 C1      20.6955  12.2900  18.2628   C         1 RES1   0.0000
  4217 C1      23.8915  14.4622  18.2628   C         1 RES1   0.0000
  4218 C1      23.8915  12.2900  26.3242   C         1 RES1   0.0000
  4219 C1      20.6955  14.4622  26.3242   C         1 RES1   0.0000
  4226 C1      30.1248   8.4894  23.8915   C         1 RES1   0.0000
  4227 C1      32.2970   8.4894  20.6955   C         1 RES1   0.0000
  4232 C1      35.2416  14.9741  23.3796   C         1 RES1   0.0000
  4233 C1      35.2416  11.7781  21.2074   C         1 RES1   0.0000
  4234 C1      27.1802  11.7781  23.3796   C         1 RES1   0.0000
  4235 C1      27.1802  14.9741  21.2074   C         1 RES1   0.0000
  4236 C1      23.3796  17.4068  32.8089   C         1 RES1   0.0000
  4237 C1      21.2074  17.4068  29.6129   C         1 RES1   0.0000
  4238 C1      23.3796   9.3454  29.6129   C         1 RES1   0.0000
  4239 C1      21.2074   9.3454  32.8089   C         1 RES1   0.0000
  4240 C2      21.6550  13.4742  18.2682   C         1 RES1   0.0000
  4241 C2      22.9320  13.2780  18.2682   C         1 RES1   0.0000
  4242 C2      22.9320  13.4742  26.3188   C         1 RES1   0.0000
  4243 C2      21.6550  13.2780  26.3188   C         1 RES1   0.0000
  4250 C2      31.3090   8.4840  22.9320   C         1 RES1   0.0000
  4251 C2      31.1128   8.4840  21.6550   C         1 RES1   0.0000
  4256 C2      35.2362  14.0146  22.1954   C         1 RES1   0.0000
  4257 C2      35.2362  12.7376  22.3916   C         1 RES1   0.0000
  4258 C2      27.1856  12.7376  22.1954   C         1 RES1   0.0000
  4259 C2      27.1856  14.0146  22.3916   C         1 RES1   0.0000
  4260 C2      22.1954  17.4014  31.8494   C         1 RES1   0.0000
  4261 C2      22.3916  17.4014  30.5724   C         1 RES1   0.0000
  4262 C2      22.1954   9.3508  30.5724   C         1 RES1   0.0000
  4263 C2      22.3916   9.3508  31.8494   C         1 RES1   0.0000
  4264 H       21.3215  14.3427  18.2700   H         1 RES1   0.0000
  4265 H       23.2655  12.4095  18.2700   H         1 RES1   0.0000
  4266 H       23.2655  14.3427  26.3170   H         1 RES1   0.0000
  4267 H       21.3215  12.4095  26.3170   H         1 RES1   0.0000
  4274 H       32.1775   8.4822  23.2655   H         1 RES1   0.0000
  4275 H       30.2443   8.4822  21.3215   H         1 RES1   0.0000
  4280 H       35.2344  14.3481  21.3269   H         1 RES1   0.0000
  4281 H       35.2344  12.4041  23.2601   H         1 RES1   0.0000
  4282 H       27.1874  12.4041  21.3269   H         1 RES1   0.0000
  4283 H       27.1874  14.3481  23.2601   H         1 RES1   0.0000
  4284 H       21.3269  17.3996  32.1829   H         1 RES1   0.0000
  4285 H       23.2601  17.3996  30.2389   H         1 RES1   0.0000
  4286 H       21.3269   9.3526  30.2389   H         1 RES1   0.0000
  4287 H       23.2601   9.3526  32.1829   H         1 RES1   0.0000
  4298 C1      23.8951   8.9174  23.3529   C         1 RES1   0.0000
  4299 C1      20.6919   8.9174  21.2341   C         1 RES1   0.0000
  4300 C1      32.2703  11.7745  35.6696   C         1 RES1   0.0000
  4301 C1      30.1515  14.9777  35.6696   C         1 RES1   0.0000
  4302 C1      30.1515  11.7745  26.7522   C         1 RES1   0.0000
  4303 C1      32.2703  14.9777  26.7522   C         1 RES1   0.0000
  4304 C1      35.6696  14.4355  29.6093   C         1 RES1   0.0000
  4305 C1      35.6696  12.3167  32.8125   C         1 RES1   0.0000
  4306 C1      26.7522  12.3167  29.6093   C         1 RES1   0.0000
  4307 C1      26.7522  14.4355  32.8125   C         1 RES1   0.0000
  4308 C1      29.6093  17.8348  32.2703   C         1 RES1   0.0000
  4309 C1      32.8125  17.8348  30.1515   C         1 RES1   0.0000
  4310 C1      29.6093   8.9174  30.1515   C         1 RES1   0.0000
  4311 C1      32.8125   8.9174  32.2703   C         1 RES1   0.0000
  4322 C2      22.9445   8.9156  22.1740   C         1 RES1   0.0000
  4323 C2      21.6425   8.9156  22.4130   C         1 RES1   0.0000
  4324 C2      31.0914  12.7251  35.6678   C         1 RES1   0.0000
  4325 C2      31.3304  14.0271  35.6678   C         1 RES1   0.0000
  4326 C2      31.3304  12.7251  26.7540   C         1 RES1   0.0000
  4327 C2      31.0914  14.0271  26.7540   C         1 RES1   0.0000
  4328 C2      35.6678  13.2566  30.5599   C         1 RES1   0.0000
  4329 C2      35.6678  13.4956  31.8619   C         1 RES1   0.0000
  4330 C2      26.7540  13.4956  30.5599   C         1 RES1   0.0000
  4331 C2      26.7540  13.2566  31.8619   C         1 RES1   0.0000
  4332 C2      30.5599  17.8330  31.0914   C         1 RES1   0.0000
  4333 C2      31.8619  17.8330  31.3304   C         1 RES1   0.0000
  4334 C2      30.5599   8.9192  31.3304   C         1 RES1   0.0000
  4335 C2      31.8619   8.9192  31.0914   C         1 RES1   0.0000
  4346 H       23.2673   8.9156  21.3019   H         1 RES1   0.0000
  4347 H       21.3197   8.9156  23.2851   H         1 RES1   0.0000
  4348 H       30.2193  12.4023  35.6678   H         1 RES1   0.0000
  4349 H       32.2025  14.3499  35.6678   H         1 RES1   0.0000
  4350 H       32.2025  12.4023  26.7540   H         1 RES1   0.0000
  4351 H       30.2193  14.3499  26.7540   H         1 RES1   0.0000
  4352 H       35.6678  12.3845  30.2371   H         1 RES1   0.0000
  4353 H       35.6678  14.3677  32.1847   H         1 RES1   0.0000
  4354 H       26.7540  14.3677  30.2371   H         1 RES1   0.0000
  4355 H       26.7540  12.3845  32.1847   H         1 RES1   0.0000
  4356 H       30.2371  17.8330  30.2193   H         1 RES1   0.0000
  4357 H       32.1847  17.8330  32.2025   H         1 RES1   0.0000
  4358 H       30.2371   8.9192  32.2025   H         1 RES1   0.0000
  4359 H       32.1847   8.9192  30.2193   H         1 RES1   0.0000
  4360 O2      25.3878  16.1993  34.5157   O         1 RES1   0.0000
  4361 O2      25.3878  10.5529  27.9061   O         1 RES1   0.0000
  4366 O2      28.3877  16.6809  19.1992   O         1 RES1   0.0000
  4367 O2      34.0341  16.6809  25.3878   O         1 RES1   0.0000
  4368 O2      28.3877  10.0713  25.3878   O         1 RES1   0.0000
  4371 O2      25.5983  10.2818  25.1167   O         1 RES1   0.0000
  4372 O2      25.5983  16.4704  19.4703   O         1 RES1   0.0000
  4400 O2      34.2696  10.3174  34.2696   O         1 RES1   0.0000
  4401 O2      28.1522  16.4348  34.2696   O         1 RES1   0.0000
  4402 O2      28.1522  10.3174  28.1522   O         1 RES1   0.0000
  4403 O2      34.2696  16.4348  28.1522   O         1 RES1   0.0000
  4404 Zr      38.1281   9.1159  18.0467   Z         1 RES1   0.0000
  4406 Zr      24.2937  17.6363  35.8815   Z         1 RES1   0.0000
  4408 Zr      38.1281  17.6363  26.5403   Z         1 RES1   0.0000
  4411 Zr      26.5403  20.2933  35.4711   Z         1 RES1   0.0000
  4413 Zr      26.9507  18.0467  20.2933   Z         1 RES1   0.0000
  4414 Zr      35.4711  18.0467  24.2937   Z         1 RES1   0.0000
  4415 Zr      35.4711   8.7055  38.1281   Z         1 RES1   0.0000
  4416 Zr      29.2107  18.0333  35.4577   Z         1 RES1   0.0000
  4417 Zr      33.2111  18.0333  26.9641   Z         1 RES1   0.0000
  4419 Zr      35.4577  11.3759  35.8681   Z         1 RES1   0.0000
  4421 Zr      26.9641  15.3763  35.8681   Z         1 RES1   0.0000
  4424 Zr      35.8681  17.6229  29.2107   Z         1 RES1   0.0000
  4425 Zr      35.8681   9.1293  33.2111   Z         1 RES1   0.0000
  4426 O1      23.0247  19.4667  17.9775   O         1 RES1   0.0000
  4427 O1      21.5623  19.4667  26.6095   O         1 RES1   0.0000
  4431 O1      37.3015   8.7747  21.5623   O         1 RES1   0.0000
  4434 O1      23.3707  17.7046  20.0873   O         1 RES1   0.0000
  4435 O1      21.2163  17.7046  24.4997   O         1 RES1   0.0000
  4444 O1      31.9457   8.4911  37.2854   O         1 RES1   0.0000
  4446 O1      37.2854  14.1109  26.3259   O         1 RES1   0.0000
  4447 O1      37.2854  12.6413  18.2611   O         1 RES1   0.0000
  4448 O1      26.3259  19.4506  31.9457   O         1 RES1   0.0000
  4449 O1      18.2611  19.4506  30.4761   O         1 RES1   0.0000
  4450 O2      37.0340  10.5529  16.6809   O         1 RES1   0.0000
  4451 O2      37.0340  16.1993  27.9061   O         1 RES1   0.0000
  4452 O2      27.9061  19.1992  34.0341   O         1 RES1   0.0000
  4455 O2      34.0341  10.0713  37.0340   O         1 RES1   0.0000
  4459 O2      36.8235  16.4704  25.1167   O         1 RES1   0.0000
  4460 O2      36.8235  10.2818  19.4703   O         1 RES1   0.0000
  4462 O2      25.1167  18.9887  34.3052   O         1 RES1   0.0000
  4463 O2      19.4703  18.9887  28.1166   O         1 RES1   0.0000
  4486 O2      25.3522  19.2348  19.2348   O         1 RES1   0.0000
  4494 Zr      26.9507   8.7055  42.1285   Z         1 RES1   0.0000
  4510 O1      25.1203   8.7747  40.8595   O         1 RES1   0.0000
  4523 O1      21.2305  11.1396  36.1083   O         1 RES1   0.0000
  4524 O1      23.3565  15.6126  36.1083   O         1 RES1   0.0000
  4533 O1      28.9744   8.4787  41.1913   O         1 RES1   0.0000
  4534 O1      33.4474   8.4787  39.0653   O         1 RES1   0.0000
  4539 O1      35.2309  14.4391  42.3648   O         1 RES1   0.0000
  4540 O1      35.2309  12.3131  37.8918   O         1 RES1   0.0000
  4541 O1      27.1909  12.3131  42.3648   O         1 RES1   0.0000
  4542 O1      27.1909  14.4391  37.8918   O         1 RES1   0.0000
  4547 O1      21.2163   9.0476  37.9221   O         1 RES1   0.0000
  4549 O1      23.3707   9.0476  42.3345   O         1 RES1   0.0000
  4575 O1      27.1785  16.2190  39.3935   O         1 RES1   0.0000
  4576 O1      35.2433  16.2190  40.8631   O         1 RES1   0.0000
  4577 O1      27.1785  10.5332  40.8631   O         1 RES1   0.0000
  4578 O1      35.2433  10.5332  39.3935   O         1 RES1   0.0000
  4579 O1      30.4761   8.4911  42.9712   O         1 RES1   0.0000
  4582 O1      25.1364  14.1109  36.0959   O         1 RES1   0.0000
  4587 C1      20.6955  12.2900  36.0976   C         1 RES1   0.0000
  4588 C1      23.8915  14.4622  36.0976   C         1 RES1   0.0000
  4597 C1      30.1248   8.4894  41.7263   C         1 RES1   0.0000
  4598 C1      32.2970   8.4894  38.5303   C         1 RES1   0.0000
  4603 C1      35.2416  14.9741  41.2144   C         1 RES1   0.0000
  4604 C1      35.2416  11.7781  39.0422   C         1 RES1   0.0000
  4605 C1      27.1802  11.7781  41.2144   C         1 RES1   0.0000
  4606 C1      27.1802  14.9741  39.0422   C         1 RES1   0.0000
  4611 C2      21.6550  13.4742  36.1030   C         1 RES1   0.0000
  4612 C2      22.9320  13.2780  36.1030   C         1 RES1   0.0000
  4621 C2      31.3090   8.4840  40.7668   C         1 RES1   0.0000
  4622 C2      31.1128   8.4840  39.4898   C         1 RES1   0.0000
  4627 C2      35.2362  14.0146  40.0302   C         1 RES1   0.0000
  4628 C2      35.2362  12.7376  40.2264   C         1 RES1   0.0000
  4629 C2      27.1856  12.7376  40.0302   C         1 RES1   0.0000
  4630 C2      27.1856  14.0146  40.2264   C         1 RES1   0.0000
  4635 H       21.3215  14.3427  36.1048   H         1 RES1   0.0000
  4636 H       23.2655  12.4095  36.1048   H         1 RES1   0.0000
  4645 H       32.1775   8.4822  41.1003   H         1 RES1   0.0000
  4646 H       30.2443   8.4822  39.1563   H         1 RES1   0.0000
  4651 H       35.2344  14.3481  39.1617   H         1 RES1   0.0000
  4652 H       35.2344  12.4041  41.0949   H         1 RES1   0.0000
  4653 H       27.1874  12.4041  39.1617   H         1 RES1   0.0000
  4654 H       27.1874  14.3481  41.0949   H         1 RES1   0.0000
  4669 C1      23.8951   8.9174  41.1877   C         1 RES1   0.0000
  4670 C1      20.6919   8.9174  39.0689   C         1 RES1   0.0000
  4693 C2      22.9445   8.9156  40.0088   C         1 RES1   0.0000
  4694 C2      21.6425   8.9156  40.2478   C         1 RES1   0.0000
  4717 H       23.2673   8.9156  39.1367   H         1 RES1   0.0000
  4718 H       21.3197   8.9156  41.1199   H         1 RES1   0.0000
  4738 O2      28.3877  16.6809  37.0340   O         1 RES1   0.0000
  4739 O2      34.0341  16.6809  43.2226   O         1 RES1   0.0000
  4740 O2      28.3877  10.0713  43.2226   O         1 RES1   0.0000
  4743 O2      25.5983  10.2818  42.9515   O         1 RES1   0.0000
  4744 O2      25.5983  16.4704  37.3051   O         1 RES1   0.0000
  4778 Zr      38.1281   9.1159  35.8815   Z         1 RES1   0.0000
  4787 Zr      26.9507  18.0467  38.1281   Z         1 RES1   0.0000
  4788 Zr      35.4711  18.0467  42.1285   Z         1 RES1   0.0000
  4800 O1      23.0247  19.4667  35.8123   O         1 RES1   0.0000
  4805 O1      37.3015   8.7747  39.3971   O         1 RES1   0.0000
  4808 O1      23.3707  17.7046  37.9221   O         1 RES1   0.0000
  4809 O1      21.2163  17.7046  42.3345   O         1 RES1   0.0000
  4821 O1      37.2854  12.6413  36.0959   O         1 RES1   0.0000
  4824 O2      37.0340  10.5529  34.5157   O         1 RES1   0.0000
  4833 O2      36.8235  16.4704  42.9515   O         1 RES1   0.0000
  4834 O2      36.8235  10.2818  37.3051   O         1 RES1   0.0000
  4862 O2      25.3522  19.2348  37.0696   O         1 RES1   0.0000
  4867 Zr      24.2937  26.9507   8.7055   Z         1 RES1   0.0000
  4868 Zr      26.5403  24.2937   9.1159   Z         1 RES1   0.0000
  4871 Zr      33.2111  26.5537  17.6229   Z         1 RES1   0.0000
  4872 Zr      29.2107  26.5537   9.1293   Z         1 RES1   0.0000
  4873 Zr      35.4577  33.2111   8.7189   Z         1 RES1   0.0000
  4875 Zr      26.9641  29.2107   8.7189   Z         1 RES1   0.0000
  4877 Zr      26.5537  35.4577  15.3763   Z         1 RES1   0.0000
  4878 Zr      26.5537  26.9641  11.3759   Z         1 RES1   0.0000
  4880 O1      23.0247  25.1203   8.7747   O         1 RES1   0.0000
  4887 O1      31.9421  28.3841  17.6921   O         1 RES1   0.0000
  4888 O1      30.4797  34.0377  17.6921   O         1 RES1   0.0000
  4889 O1      30.4797  28.3841   9.0601   O         1 RES1   0.0000
  4890 O1      31.9421  34.0377   9.0601   O         1 RES1   0.0000
  4891 O1      35.5269  31.9421  10.5493   O         1 RES1   0.0000
  4892 O1      35.5269  30.4797  16.2029   O         1 RES1   0.0000
  4893 O1      26.8949  30.4797  10.5493   O         1 RES1   0.0000
  4894 O1      26.8949  31.9421  16.2029   O         1 RES1   0.0000
  4895 O1      28.3841  35.5269  14.1073   O         1 RES1   0.0000
  4896 O1      34.0377  35.5269  12.6449   O         1 RES1   0.0000
  4897 O1      28.3841  26.8949  12.6449   O         1 RES1   0.0000
  4898 O1      34.0377  26.8949  14.1073   O         1 RES1   0.0000
  4901 O1      23.3565  28.9744   8.4787   O         1 RES1   0.0000
  4902 O1      21.2305  33.4474   8.4787   O         1 RES1   0.0000
  4903 O1      18.2735  21.2305  11.1396   O         1 RES1   0.0000
  4904 O1      18.2735  23.3565  15.6126   O         1 RES1   0.0000
  4905 O1      26.3135  23.3565  11.1396   O         1 RES1   0.0000
  4906 O1      26.3135  21.2305  15.6126   O         1 RES1   0.0000
  4911 O1      32.2739  24.5300  17.3961   O         1 RES1   0.0000
  4912 O1      30.1479  20.0570  17.3961   O         1 RES1   0.0000
  4913 O1      30.1479  24.5300   9.3561   O         1 RES1   0.0000
  4914 O1      32.2739  20.0570   9.3561   O         1 RES1   0.0000
  4919 O1      24.5300  35.2309  14.4391   O         1 RES1   0.0000
  4920 O1      20.0570  35.2309  12.3131   O         1 RES1   0.0000
  4921 O1      24.5300  27.1909  12.3131   O         1 RES1   0.0000
  4922 O1      20.0570  27.1909  14.4391   O         1 RES1   0.0000
  4925 O1      20.0873  21.2163   9.0476   O         1 RES1   0.0000
  4927 O1      24.4997  23.3707   9.0476   O         1 RES1   0.0000
  4931 O1      32.2881  26.6220  15.5823   O         1 RES1   0.0000
  4932 O1      30.1337  35.7998  15.5823   O         1 RES1   0.0000
  4933 O1      30.1337  26.6220  11.1699   O         1 RES1   0.0000
  4934 O1      32.2881  35.7998  11.1699   O         1 RES1   0.0000
  4935 O1      33.4171  32.2881   8.7872   O         1 RES1   0.0000
  4936 O1      33.4171  30.1337  17.9650   O         1 RES1   0.0000
  4937 O1      29.0047  30.1337   8.7872   O         1 RES1   0.0000
  4938 O1      29.0047  32.2881  17.9650   O         1 RES1   0.0000
  4939 O1      26.6220  33.4171  14.4533   O         1 RES1   0.0000
  4940 O1      35.7998  33.4171  12.2989   O         1 RES1   0.0000
  4941 O1      26.6220  29.0047  12.2989   O         1 RES1   0.0000
  4942 O1      35.7998  29.0047  14.4533   O         1 RES1   0.0000
  4943 O1      21.5587  27.1785  16.2190   O         1 RES1   0.0000
  4944 O1      23.0283  35.2433  16.2190   O         1 RES1   0.0000
  4945 O1      23.0283  27.1785  10.5332   O         1 RES1   0.0000
  4946 O1      21.5587  35.2433  10.5332   O         1 RES1   0.0000
  4947 O1      34.0538  21.5587   9.3437   O         1 RES1   0.0000
  4948 O1      34.0538  23.0283  17.4085   O         1 RES1   0.0000
  4949 O1      28.3680  23.0283   9.3437   O         1 RES1   0.0000
  4950 O1      28.3680  21.5587  17.4085   O         1 RES1   0.0000
  4959 O1      25.1364  30.4761   8.4911   O         1 RES1   0.0000
  4961 O1      26.3259  25.1364  12.6413   O         1 RES1   0.0000
  4962 O1      18.2611  25.1364  14.1109   O         1 RES1   0.0000
  4965 C1      23.8915  30.1248   8.4894   C         1 RES1   0.0000
  4966 C1      20.6955  32.2970   8.4894   C         1 RES1   0.0000
  4967 C1      18.2628  20.6955  12.2900   C         1 RES1   0.0000
  4968 C1      18.2628  23.8915  14.4622   C         1 RES1   0.0000
  4969 C1      26.3242  23.8915  12.2900   C         1 RES1   0.0000
  4970 C1      26.3242  20.6955  14.4622   C         1 RES1   0.0000
  4975 C1      32.8089  23.3796  17.4068   C         1 RES1   0.0000
  4976 C1      29.6129  21.2074  17.4068   C         1 RES1   0.0000
  4977 C1      29.6129  23.3796   9.3454   C         1 RES1   0.0000
  4978 C1      32.8089  21.2074   9.3454   C         1 RES1   0.0000
  4983 C1      23.3796  35.2416  14.9741   C         1 RES1   0.0000
  4984 C1      21.2074  35.2416  11.7781   C         1 RES1   0.0000
  4985 C1      23.3796  27.1802  11.7781   C         1 RES1   0.0000
  4986 C1      21.2074  27.1802  14.9741   C         1 RES1   0.0000
  4989 C2      22.9320  31.3090   8.4840   C         1 RES1   0.0000
  4990 C2      21.6550  31.1128   8.4840   C         1 RES1   0.0000
  4991 C2      18.2682  21.6550  13.4742   C         1 RES1   0.0000
  4992 C2      18.2682  22.9320  13.2780   C         1 RES1   0.0000
  4993 C2      26.3188  22.9320  13.4742   C         1 RES1   0.0000
  4994 C2      26.3188  21.6550  13.2780   C         1 RES1   0.0000
  4999 C2      31.8494  22.1954  17.4014   C         1 RES1   0.0000
  5000 C2      30.5724  22.3916  17.4014   C         1 RES1   0.0000
  5001 C2      30.5724  22.1954   9.3508   C         1 RES1   0.0000
  5002 C2      31.8494  22.3916   9.3508   C         1 RES1   0.0000
  5007 C2      22.1954  35.2362  14.0146   C         1 RES1   0.0000
  5008 C2      22.3916  35.2362  12.7376   C         1 RES1   0.0000
  5009 C2      22.1954  27.1856  12.7376   C         1 RES1   0.0000
  5010 C2      22.3916  27.1856  14.0146   C         1 RES1   0.0000
  5013 H       23.2655  32.1775   8.4822   H         1 RES1   0.0000
  5014 H       21.3215  30.2443   8.4822   H         1 RES1   0.0000
  5015 H       18.2700  21.3215  14.3427   H         1 RES1   0.0000
  5016 H       18.2700  23.2655  12.4095   H         1 RES1   0.0000
  5017 H       26.3170  23.2655  14.3427   H         1 RES1   0.0000
  5018 H       26.3170  21.3215  12.4095   H         1 RES1   0.0000
  5023 H       32.1829  21.3269  17.3996   H         1 RES1   0.0000
  5024 H       30.2389  23.2601  17.3996   H         1 RES1   0.0000
  5025 H       30.2389  21.3269   9.3526   H         1 RES1   0.0000
  5026 H       32.1829  23.2601   9.3526   H         1 RES1   0.0000
  5031 H       21.3269  35.2344  14.3481   H         1 RES1   0.0000
  5032 H       23.2601  35.2344  12.4041   H         1 RES1   0.0000
  5033 H       21.3269  27.1874  12.4041   H         1 RES1   0.0000
  5034 H       23.2601  27.1874  14.3481   H         1 RES1   0.0000
  5037 C1      23.3529  23.8951   8.9174   C         1 RES1   0.0000
  5038 C1      21.2341  20.6919   8.9174   C         1 RES1   0.0000
  5047 C1      32.2703  29.6093  17.8348   C         1 RES1   0.0000
  5048 C1      30.1515  32.8125  17.8348   C         1 RES1   0.0000
  5049 C1      30.1515  29.6093   8.9174   C         1 RES1   0.0000
  5050 C1      32.2703  32.8125   8.9174   C         1 RES1   0.0000
  5051 C1      35.6696  32.2703  11.7745   C         1 RES1   0.0000
  5052 C1      35.6696  30.1515  14.9777   C         1 RES1   0.0000
  5053 C1      26.7522  30.1515  11.7745   C         1 RES1   0.0000
  5054 C1      26.7522  32.2703  14.9777   C         1 RES1   0.0000
  5055 C1      29.6093  35.6696  14.4355   C         1 RES1   0.0000
  5056 C1      32.8125  35.6696  12.3167   C         1 RES1   0.0000
  5057 C1      29.6093  26.7522  12.3167   C         1 RES1   0.0000
  5058 C1      32.8125  26.7522  14.4355   C         1 RES1   0.0000
  5061 C2      22.1740  22.9445   8.9156   C         1 RES1   0.0000
  5062 C2      22.4130  21.6425   8.9156   C         1 RES1   0.0000
  5071 C2      31.0914  30.5599  17.8330   C         1 RES1   0.0000
  5072 C2      31.3304  31.8619  17.8330   C         1 RES1   0.0000
  5073 C2      31.3304  30.5599   8.9192   C         1 RES1   0.0000
  5074 C2      31.0914  31.8619   8.9192   C         1 RES1   0.0000
  5075 C2      35.6678  31.0914  12.7251   C         1 RES1   0.0000
  5076 C2      35.6678  31.3304  14.0271   C         1 RES1   0.0000
  5077 C2      26.7540  31.3304  12.7251   C         1 RES1   0.0000
  5078 C2      26.7540  31.0914  14.0271   C         1 RES1   0.0000
  5079 C2      30.5599  35.6678  13.2566   C         1 RES1   0.0000
  5080 C2      31.8619  35.6678  13.4956   C         1 RES1   0.0000
  5081 C2      30.5599  26.7540  13.4956   C         1 RES1   0.0000
  5082 C2      31.8619  26.7540  13.2566   C         1 RES1   0.0000
  5085 H       21.3019  23.2673   8.9156   H         1 RES1   0.0000
  5086 H       23.2851  21.3197   8.9156   H         1 RES1   0.0000
  5095 H       30.2193  30.2371  17.8330   H         1 RES1   0.0000
  5096 H       32.2025  32.1847  17.8330   H         1 RES1   0.0000
  5097 H       32.2025  30.2371   8.9192   H         1 RES1   0.0000
  5098 H       30.2193  32.1847   8.9192   H         1 RES1   0.0000
  5099 H       35.6678  30.2193  12.4023   H         1 RES1   0.0000
  5100 H       35.6678  32.2025  14.3499   H         1 RES1   0.0000
  5101 H       26.7540  32.2025  12.4023   H         1 RES1   0.0000
  5102 H       26.7540  30.2193  14.3499   H         1 RES1   0.0000
  5103 H       30.2371  35.6678  12.3845   H         1 RES1   0.0000
  5104 H       32.1847  35.6678  14.3677   H         1 RES1   0.0000
  5105 H       30.2371  26.7540  14.3677   H         1 RES1   0.0000
  5106 H       32.1847  26.7540  12.3845   H         1 RES1   0.0000
  5107 O2      25.3878  34.0341  16.6809   O         1 RES1   0.0000
  5108 O2      25.3878  28.3877  10.0713   O         1 RES1   0.0000
  5109 O2      34.5157  19.1992  10.5529   O         1 RES1   0.0000
  5110 O2      34.5157  25.3878  16.1993   O         1 RES1   0.0000
  5111 O2      27.9061  25.3878  10.5529   O         1 RES1   0.0000
  5122 O2      25.1167  25.5983  10.2818   O         1 RES1   0.0000
  5123 O2      19.4703  25.5983  16.4704   O         1 RES1   0.0000
  5147 O2      34.2696  28.1522  16.4348   O         1 RES1   0.0000
  5148 O2      28.1522  34.2696  16.4348   O         1 RES1   0.0000
  5149 O2      28.1522  28.1522  10.3174   O         1 RES1   0.0000
  5150 O2      34.2696  34.2696  10.3174   O         1 RES1   0.0000
  5152 Zr      24.2937  35.4711  18.0467   Z         1 RES1   0.0000
  5153 Zr      38.1281  35.4711   8.7055   Z         1 RES1   0.0000
  5154 Zr      35.8815  20.2933   9.1159   Z         1 RES1   0.0000
  5156 Zr      35.8815  24.2937  17.6363   Z         1 RES1   0.0000
  5158 Zr      26.5403  38.1281  17.6363   Z         1 RES1   0.0000
  5161 Zr      35.4711  26.5403  20.2933   Z         1 RES1   0.0000
  5164 Zr      29.2107  35.8681  17.6229   Z         1 RES1   0.0000
  5165 Zr      33.2111  35.8681   9.1293   Z         1 RES1   0.0000
  5166 Zr      35.4577  29.2107  18.0333   Z         1 RES1   0.0000
  5167 Zr      26.9641  33.2111  18.0333   Z         1 RES1   0.0000
  5169 Zr      35.8681  35.4577  11.3759   Z         1 RES1   0.0000
  5171 Zr      35.8681  26.9641  15.3763   Z         1 RES1   0.0000
  5173 O1      21.5623  37.3015   8.7747   O         1 RES1   0.0000
  5174 O1      17.9775  23.0247  19.4667   O         1 RES1   0.0000
  5175 O1      26.6095  21.5623  19.4667   O         1 RES1   0.0000
  5182 O1      20.0873  23.3707  17.7046   O         1 RES1   0.0000
  5183 O1      24.4997  21.2163  17.7046   O         1 RES1   0.0000
  5190 O1      31.9457  26.3259  19.4506   O         1 RES1   0.0000
  5191 O1      30.4761  18.2611  19.4506   O         1 RES1   0.0000
  5192 O1      37.2854  31.9457   8.4911   O         1 RES1   0.0000
  5194 O1      26.3259  37.2854  14.1109   O         1 RES1   0.0000
  5195 O1      18.2611  37.2854  12.6413   O         1 RES1   0.0000
  5198 O2      37.0340  34.0341  10.0713   O         1 RES1   0.0000
  5199 O2      27.9061  37.0340  16.1993   O         1 RES1   0.0000
  5200 O2      34.0341  27.9061  19.1992   O         1 RES1   0.0000
  5201 O2      34.3052  25.1167  18.9887   O         1 RES1   0.0000
  5202 O2      28.1166  19.4703  18.9887   O         1 RES1   0.0000
  5206 O2      25.1167  36.8235  16.4704   O         1 RES1   0.0000
  5207 O2      19.4703  36.8235  10.2818   O         1 RES1   0.0000
  5232 Zr      24.2937  26.9507  26.5403   Z         1 RES1   0.0000
  5233 Zr      26.5403  24.2937  26.9507   Z         1 RES1   0.0000
  5234 Zr      26.9507  26.5403  24.2937   Z         1 RES1   0.0000
  5235 Zr      33.2111  26.5537  35.4577   Z         1 RES1   0.0000
  5236 Zr      29.2107  26.5537  26.9641   Z         1 RES1   0.0000
  5237 Zr      35.4577  33.2111  26.5537   Z         1 RES1   0.0000
  5238 Zr      26.9641  29.2107  26.5537   Z         1 RES1   0.0000
  5239 Zr      26.5537  35.4577  33.2111   Z         1 RES1   0.0000
  5240 Zr      26.5537  26.9641  29.2107   Z         1 RES1   0.0000
  5241 O1      21.5623  25.1203  17.9775   O         1 RES1   0.0000
  5242 O1      23.0247  25.1203  26.6095   O         1 RES1   0.0000
  5243 O1      17.9775  21.5623  25.1203   O         1 RES1   0.0000
  5244 O1      26.6095  23.0247  25.1203   O         1 RES1   0.0000
  5245 O1      25.1203  17.9775  21.5623   O         1 RES1   0.0000
  5246 O1      25.1203  26.6095  23.0247   O         1 RES1   0.0000
  5247 O1      31.9421  28.3841  35.5269   O         1 RES1   0.0000
  5248 O1      30.4797  34.0377  35.5269   O         1 RES1   0.0000
  5249 O1      30.4797  28.3841  26.8949   O         1 RES1   0.0000
  5250 O1      31.9421  34.0377  26.8949   O         1 RES1   0.0000
  5251 O1      35.5269  31.9421  28.3841   O         1 RES1   0.0000
  5252 O1      35.5269  30.4797  34.0377   O         1 RES1   0.0000
  5253 O1      26.8949  30.4797  28.3841   O         1 RES1   0.0000
  5254 O1      26.8949  31.9421  34.0377   O         1 RES1   0.0000
  5255 O1      28.3841  35.5269  31.9421   O         1 RES1   0.0000
  5256 O1      34.0377  35.5269  30.4797   O         1 RES1   0.0000
  5257 O1      28.3841  26.8949  30.4797   O         1 RES1   0.0000
  5258 O1      34.0377  26.8949  31.9421   O         1 RES1   0.0000
  5259 O1      21.2305  28.9744  18.2735   O         1 RES1   0.0000
  5260 O1      23.3565  33.4474  18.2735   O         1 RES1   0.0000
  5261 O1      23.3565  28.9744  26.3135   O         1 RES1   0.0000
  5262 O1      21.2305  33.4474  26.3135   O         1 RES1   0.0000
  5263 O1      18.2735  21.2305  28.9744   O         1 RES1   0.0000
  5264 O1      18.2735  23.3565  33.4474   O         1 RES1   0.0000
  5265 O1      26.3135  23.3565  28.9744   O         1 RES1   0.0000
  5266 O1      26.3135  21.2305  33.4474   O         1 RES1   0.0000
  5267 O1      28.9744  18.2735  21.2305   O         1 RES1   0.0000
  5268 O1      33.4474  18.2735  23.3565   O         1 RES1   0.0000
  5269 O1      28.9744  26.3135  23.3565   O         1 RES1   0.0000
  5270 O1      33.4474  26.3135  21.2305   O         1 RES1   0.0000
  5271 O1      32.2739  24.5300  35.2309   O         1 RES1   0.0000
  5272 O1      30.1479  20.0570  35.2309   O         1 RES1   0.0000
  5273 O1      30.1479  24.5300  27.1909   O         1 RES1   0.0000
  5274 O1      32.2739  20.0570  27.1909   O         1 RES1   0.0000
  5275 O1      35.2309  32.2739  24.5300   O         1 RES1   0.0000
  5276 O1      35.2309  30.1479  20.0570   O         1 RES1   0.0000
  5277 O1      27.1909  30.1479  24.5300   O         1 RES1   0.0000
  5278 O1      27.1909  32.2739  20.0570   O         1 RES1   0.0000
  5279 O1      24.5300  35.2309  32.2739   O         1 RES1   0.0000
  5280 O1      20.0570  35.2309  30.1479   O         1 RES1   0.0000
  5281 O1      24.5300  27.1909  30.1479   O         1 RES1   0.0000
  5282 O1      20.0570  27.1909  32.2739   O         1 RES1   0.0000
  5283 O1      21.2163  26.8824  20.0873   O         1 RES1   0.0000
  5284 O1      23.3707  26.8824  24.4997   O         1 RES1   0.0000
  5285 O1      20.0873  21.2163  26.8824   O         1 RES1   0.0000
  5286 O1      24.4997  23.3707  26.8824   O         1 RES1   0.0000
  5287 O1      26.8824  20.0873  21.2163   O         1 RES1   0.0000
  5288 O1      26.8824  24.4997  23.3707   O         1 RES1   0.0000
  5289 O1      32.2881  26.6220  33.4171   O         1 RES1   0.0000
  5290 O1      30.1337  35.7998  33.4171   O         1 RES1   0.0000
  5291 O1      30.1337  26.6220  29.0047   O         1 RES1   0.0000
  5292 O1      32.2881  35.7998  29.0047   O         1 RES1   0.0000
  5293 O1      33.4171  32.2881  26.6220   O         1 RES1   0.0000
  5294 O1      33.4171  30.1337  35.7998   O         1 RES1   0.0000
  5295 O1      29.0047  30.1337  26.6220   O         1 RES1   0.0000
  5296 O1      29.0047  32.2881  35.7998   O         1 RES1   0.0000
  5297 O1      26.6220  33.4171  32.2881   O         1 RES1   0.0000
  5298 O1      35.7998  33.4171  30.1337   O         1 RES1   0.0000
  5299 O1      26.6220  29.0047  30.1337   O         1 RES1   0.0000
  5300 O1      35.7998  29.0047  32.2881   O         1 RES1   0.0000
  5301 O1      21.5587  27.1785  34.0538   O         1 RES1   0.0000
  5302 O1      23.0283  35.2433  34.0538   O         1 RES1   0.0000
  5303 O1      23.0283  27.1785  28.3680   O         1 RES1   0.0000
  5304 O1      21.5587  35.2433  28.3680   O         1 RES1   0.0000
  5305 O1      34.0538  21.5587  27.1785   O         1 RES1   0.0000
  5306 O1      34.0538  23.0283  35.2433   O         1 RES1   0.0000
  5307 O1      28.3680  23.0283  27.1785   O         1 RES1   0.0000
  5308 O1      28.3680  21.5587  35.2433   O         1 RES1   0.0000
  5309 O1      27.1785  34.0538  21.5587   O         1 RES1   0.0000
  5310 O1      35.2433  34.0538  23.0283   O         1 RES1   0.0000
  5311 O1      27.1785  28.3680  23.0283   O         1 RES1   0.0000
  5312 O1      35.2433  28.3680  21.5587   O         1 RES1   0.0000
  5313 O1      30.4761  26.3259  25.1364   O         1 RES1   0.0000
  5314 O1      31.9457  18.2611  25.1364   O         1 RES1   0.0000
  5315 O1      25.1364  30.4761  26.3259   O         1 RES1   0.0000
  5316 O1      25.1364  31.9457  18.2611   O         1 RES1   0.0000
  5317 O1      26.3259  25.1364  30.4761   O         1 RES1   0.0000
  5318 O1      18.2611  25.1364  31.9457   O         1 RES1   0.0000
  5319 C1      20.6955  30.1248  18.2628   C         1 RES1   0.0000
  5320 C1      23.8915  32.2970  18.2628   C         1 RES1   0.0000
  5321 C1      23.8915  30.1248  26.3242   C         1 RES1   0.0000
  5322 C1      20.6955  32.2970  26.3242   C         1 RES1   0.0000
  5323 C1      18.2628  20.6955  30.1248   C         1 RES1   0.0000
  5324 C1      18.2628  23.8915  32.2970   C         1 RES1   0.0000
  5325 C1      26.3242  23.8915  30.1248   C         1 RES1   0.0000
  5326 C1      26.3242  20.6955  32.2970   C         1 RES1   0.0000
  5327 C1      30.1248  18.2628  20.6955   C         1 RES1   0.0000
  5328 C1      32.2970  18.2628  23.8915   C         1 RES1   0.0000
  5329 C1      30.1248  26.3242  23.8915   C         1 RES1   0.0000
  5330 C1      32.2970  26.3242  20.6955   C         1 RES1   0.0000
  5331 C1      32.8089  23.3796  35.2416   C         1 RES1   0.0000
  5332 C1      29.6129  21.2074  35.2416   C         1 RES1   0.0000
  5333 C1      29.6129  23.3796  27.1802   C         1 RES1   0.0000
  5334 C1      32.8089  21.2074  27.1802   C         1 RES1   0.0000
  5335 C1      35.2416  32.8089  23.3796   C         1 RES1   0.0000
  5336 C1      35.2416  29.6129  21.2074   C         1 RES1   0.0000
  5337 C1      27.1802  29.6129  23.3796   C         1 RES1   0.0000
  5338 C1      27.1802  32.8089  21.2074   C         1 RES1   0.0000
  5339 C1      23.3796  35.2416  32.8089   C         1 RES1   0.0000
  5340 C1      21.2074  35.2416  29.6129   C         1 RES1   0.0000
  5341 C1      23.3796  27.1802  29.6129   C         1 RES1   0.0000
  5342 C1      21.2074  27.1802  32.8089   C         1 RES1   0.0000
  5343 C2      21.6550  31.3090  18.2682   C         1 RES1   0.0000
  5344 C2      22.9320  31.1128  18.2682   C         1 RES1   0.0000
  5345 C2      22.9320  31.3090  26.3188   C         1 RES1   0.0000
  5346 C2      21.6550  31.1128  26.3188   C         1 RES1   0.0000
  5347 C2      18.2682  21.6550  31.3090   C         1 RES1   0.0000
  5348 C2      18.2682  22.9320  31.1128   C         1 RES1   0.0000
  5349 C2      26.3188  22.9320  31.3090   C         1 RES1   0.0000
  5350 C2      26.3188  21.6550  31.1128   C         1 RES1   0.0000
  5351 C2      31.3090  18.2682  21.6550   C         1 RES1   0.0000
  5352 C2      31.1128  18.2682  22.9320   C         1 RES1   0.0000
  5353 C2      31.3090  26.3188  22.9320   C         1 RES1   0.0000
  5354 C2      31.1128  26.3188  21.6550   C         1 RES1   0.0000
  5355 C2      31.8494  22.1954  35.2362   C         1 RES1   0.0000
  5356 C2      30.5724  22.3916  35.2362   C         1 RES1   0.0000
  5357 C2      30.5724  22.1954  27.1856   C         1 RES1   0.0000
  5358 C2      31.8494  22.3916  27.1856   C         1 RES1   0.0000
  5359 C2      35.2362  31.8494  22.1954   C         1 RES1   0.0000
  5360 C2      35.2362  30.5724  22.3916   C         1 RES1   0.0000
  5361 C2      27.1856  30.5724  22.1954   C         1 RES1   0.0000
  5362 C2      27.1856  31.8494  22.3916   C         1 RES1   0.0000
  5363 C2      22.1954  35.2362  31.8494   C         1 RES1   0.0000
  5364 C2      22.3916  35.2362  30.5724   C         1 RES1   0.0000
  5365 C2      22.1954  27.1856  30.5724   C         1 RES1   0.0000
  5366 C2      22.3916  27.1856  31.8494   C         1 RES1   0.0000
  5367 H       21.3215  32.1775  18.2700   H         1 RES1   0.0000
  5368 H       23.2655  30.2443  18.2700   H         1 RES1   0.0000
  5369 H       23.2655  32.1775  26.3170   H         1 RES1   0.0000
  5370 H       21.3215  30.2443  26.3170   H         1 RES1   0.0000
  5371 H       18.2700  21.3215  32.1775   H         1 RES1   0.0000
  5372 H       18.2700  23.2655  30.2443   H         1 RES1   0.0000
  5373 H       26.3170  23.2655  32.1775   H         1 RES1   0.0000
  5374 H       26.3170  21.3215  30.2443   H         1 RES1   0.0000
  5375 H       32.1775  18.2700  21.3215   H         1 RES1   0.0000
  5376 H       30.2443  18.2700  23.2655   H         1 RES1   0.0000
  5377 H       32.1775  26.3170  23.2655   H         1 RES1   0.0000
  5378 H       30.2443  26.3170  21.3215   H         1 RES1   0.0000
  5379 H       32.1829  21.3269  35.2344   H         1 RES1   0.0000
  5380 H       30.2389  23.2601  35.2344   H         1 RES1   0.0000
  5381 H       30.2389  21.3269  27.1874   H         1 RES1   0.0000
  5382 H       32.1829  23.2601  27.1874   H         1 RES1   0.0000
  5383 H       35.2344  32.1829  21.3269   H         1 RES1   0.0000
  5384 H       35.2344  30.2389  23.2601   H         1 RES1   0.0000
  5385 H       27.1874  30.2389  21.3269   H         1 RES1   0.0000
  5386 H       27.1874  32.1829  23.2601   H         1 RES1   0.0000
  5387 H       21.3269  35.2344  32.1829   H         1 RES1   0.0000
  5388 H       23.2601  35.2344  30.2389   H         1 RES1   0.0000
  5389 H       21.3269  27.1874  30.2389   H         1 RES1   0.0000
  5390 H       23.2601  27.1874  32.1829   H         1 RES1   0.0000
  5391 C1      21.2341  23.8951  17.8348   C         1 RES1   0.0000
  5392 C1      23.3529  20.6919  17.8348   C         1 RES1   0.0000
  5393 C1      23.3529  23.8951  26.7522   C         1 RES1   0.0000
  5394 C1      21.2341  20.6919  26.7522   C         1 RES1   0.0000
  5395 C1      17.8348  21.2341  23.8951   C         1 RES1   0.0000
  5396 C1      17.8348  23.3529  20.6919   C         1 RES1   0.0000
  5397 C1      26.7522  23.3529  23.8951   C         1 RES1   0.0000
  5398 C1      26.7522  21.2341  20.6919   C         1 RES1   0.0000
  5399 C1      23.8951  17.8348  21.2341   C         1 RES1   0.0000
  5400 C1      20.6919  17.8348  23.3529   C         1 RES1   0.0000
  5401 C1      23.8951  26.7522  23.3529   C         1 RES1   0.0000
  5402 C1      20.6919  26.7522  21.2341   C         1 RES1   0.0000
  5403 C1      32.2703  29.6093  35.6696   C         1 RES1   0.0000
  5404 C1      30.1515  32.8125  35.6696   C         1 RES1   0.0000
  5405 C1      30.1515  29.6093  26.7522   C         1 RES1   0.0000
  5406 C1      32.2703  32.8125  26.7522   C         1 RES1   0.0000
  5407 C1      35.6696  32.2703  29.6093   C         1 RES1   0.0000
  5408 C1      35.6696  30.1515  32.8125   C         1 RES1   0.0000
  5409 C1      26.7522  30.1515  29.6093   C         1 RES1   0.0000
  5410 C1      26.7522  32.2703  32.8125   C         1 RES1   0.0000
  5411 C1      29.6093  35.6696  32.2703   C         1 RES1   0.0000
  5412 C1      32.8125  35.6696  30.1515   C         1 RES1   0.0000
  5413 C1      29.6093  26.7522  30.1515   C         1 RES1   0.0000
  5414 C1      32.8125  26.7522  32.2703   C         1 RES1   0.0000
  5415 C2      22.4130  22.9445  17.8366   C         1 RES1   0.0000
  5416 C2      22.1740  21.6425  17.8366   C         1 RES1   0.0000
  5417 C2      22.1740  22.9445  26.7504   C         1 RES1   0.0000
  5418 C2      22.4130  21.6425  26.7504   C         1 RES1   0.0000
  5419 C2      17.8366  22.4130  22.9445   C         1 RES1   0.0000
  5420 C2      17.8366  22.1740  21.6425   C         1 RES1   0.0000
  5421 C2      26.7504  22.1740  22.9445   C         1 RES1   0.0000
  5422 C2      26.7504  22.4130  21.6425   C         1 RES1   0.0000
  5423 C2      22.9445  17.8366  22.4130   C         1 RES1   0.0000
  5424 C2      21.6425  17.8366  22.1740   C         1 RES1   0.0000
  5425 C2      22.9445  26.7504  22.1740   C         1 RES1   0.0000
  5426 C2      21.6425  26.7504  22.4130   C         1 RES1   0.0000
  5427 C2      31.0914  30.5599  35.6678   C         1 RES1   0.0000
  5428 C2      31.3304  31.8619  35.6678   C         1 RES1   0.0000
  5429 C2      31.3304  30.5599  26.7540   C         1 RES1   0.0000
  5430 C2      31.0914  31.8619  26.7540   C         1 RES1   0.0000
  5431 C2      35.6678  31.0914  30.5599   C         1 RES1   0.0000
  5432 C2      35.6678  31.3304  31.8619   C         1 RES1   0.0000
  5433 C2      26.7540  31.3304  30.5599   C         1 RES1   0.0000
  5434 C2      26.7540  31.0914  31.8619   C         1 RES1   0.0000
  5435 C2      30.5599  35.6678  31.0914   C         1 RES1   0.0000
  5436 C2      31.8619  35.6678  31.3304   C         1 RES1   0.0000
  5437 C2      30.5599  26.7540  31.3304   C         1 RES1   0.0000
  5438 C2      31.8619  26.7540  31.0914   C         1 RES1   0.0000
  5439 H       23.2851  23.2673  17.8366   H         1 RES1   0.0000
  5440 H       21.3019  21.3197  17.8366   H         1 RES1   0.0000
  5441 H       21.3019  23.2673  26.7504   H         1 RES1   0.0000
  5442 H       23.2851  21.3197  26.7504   H         1 RES1   0.0000
  5443 H       17.8366  23.2851  23.2673   H         1 RES1   0.0000
  5444 H       17.8366  21.3019  21.3197   H         1 RES1   0.0000
  5445 H       26.7504  21.3019  23.2673   H         1 RES1   0.0000
  5446 H       26.7504  23.2851  21.3197   H         1 RES1   0.0000
  5447 H       23.2673  17.8366  23.2851   H         1 RES1   0.0000
  5448 H       21.3197  17.8366  21.3019   H         1 RES1   0.0000
  5449 H       23.2673  26.7504  21.3019   H         1 RES1   0.0000
  5450 H       21.3197  26.7504  23.2851   H         1 RES1   0.0000
  5451 H       30.2193  30.2371  35.6678   H         1 RES1   0.0000
  5452 H       32.2025  32.1847  35.6678   H         1 RES1   0.0000
  5453 H       32.2025  30.2371  26.7540   H         1 RES1   0.0000
  5454 H       30.2193  32.1847  26.7540   H         1 RES1   0.0000
  5455 H       35.6678  30.2193  30.2371   H         1 RES1   0.0000
  5456 H       35.6678  32.2025  32.1847   H         1 RES1   0.0000
  5457 H       26.7540  32.2025  30.2371   H         1 RES1   0.0000
  5458 H       26.7540  30.2193  32.1847   H         1 RES1   0.0000
  5459 H       30.2371  35.6678  30.2193   H         1 RES1   0.0000
  5460 H       32.1847  35.6678  32.2025   H         1 RES1   0.0000
  5461 H       30.2371  26.7540  32.2025   H         1 RES1   0.0000
  5462 H       32.1847  26.7540  30.2193   H         1 RES1   0.0000
  5463 O2      25.3878  34.0341  34.5157   O         1 RES1   0.0000
  5464 O2      25.3878  28.3877  27.9061   O         1 RES1   0.0000
  5465 O2      34.5157  19.1992  28.3877   O         1 RES1   0.0000
  5466 O2      34.5157  25.3878  34.0341   O         1 RES1   0.0000
  5467 O2      27.9061  25.3878  28.3877   O         1 RES1   0.0000
  5468 O2      28.3877  34.5157  19.1992   O         1 RES1   0.0000
  5469 O2      34.0341  34.5157  25.3878   O         1 RES1   0.0000
  5470 O2      28.3877  27.9061  25.3878   O         1 RES1   0.0000
  5471 O2      28.1166  25.1167  25.5983   O         1 RES1   0.0000
  5472 O2      34.3052  19.4703  25.5983   O         1 RES1   0.0000
  5473 O2      25.5983  28.1166  25.1167   O         1 RES1   0.0000
  5474 O2      25.5983  34.3052  19.4703   O         1 RES1   0.0000
  5475 O2      25.1167  25.5983  28.1166   O         1 RES1   0.0000
  5476 O2      19.4703  25.5983  34.3052   O         1 RES1   0.0000
  5496 O2      25.3522  25.3522  25.3522   O         1 RES1   0.0000
  5497 O2      34.2696  28.1522  34.2696   O         1 RES1   0.0000
  5498 O2      28.1522  34.2696  34.2696   O         1 RES1   0.0000
  5499 O2      28.1522  28.1522  28.1522   O         1 RES1   0.0000
  5500 O2      34.2696  34.2696  28.1522   O         1 RES1   0.0000
  5501 Zr      38.1281  26.9507  18.0467   Z         1 RES1   0.0000
  5502 Zr      24.2937  35.4711  35.8815   Z         1 RES1   0.0000
  5503 Zr      38.1281  35.4711  26.5403   Z         1 RES1   0.0000
  5504 Zr      35.8815  20.2933  26.9507   Z         1 RES1   0.0000
  5505 Zr      35.8815  24.2937  35.4711   Z         1 RES1   0.0000
  5506 Zr      26.5403  38.1281  35.4711   Z         1 RES1   0.0000
  5507 Zr      26.9507  35.8815  20.2933   Z         1 RES1   0.0000
  5508 Zr      35.4711  35.8815  24.2937   Z         1 RES1   0.0000
  5509 Zr      35.4711  26.5403  38.1281   Z         1 RES1   0.0000
  5510 Zr      29.2107  35.8681  35.4577   Z         1 RES1   0.0000
  5511 Zr      33.2111  35.8681  26.9641   Z         1 RES1   0.0000
  5512 Zr      35.4577  29.2107  35.8681   Z         1 RES1   0.0000
  5513 Zr      26.9641  33.2111  35.8681   Z         1 RES1   0.0000
  5514 Zr      35.8681  35.4577  29.2107   Z         1 RES1   0.0000
  5515 Zr      35.8681  26.9641  33.2111   Z         1 RES1   0.0000
  5516 O1      23.0247  37.3015  17.9775   O         1 RES1   0.0000
  5517 O1      21.5623  37.3015  26.6095   O         1 RES1   0.0000
  5518 O1      17.9775  23.0247  37.3015   O         1 RES1   0.0000
  5519 O1      26.6095  21.5623  37.3015   O         1 RES1   0.0000
  5520 O1      37.3015  17.9775  23.0247   O         1 RES1   0.0000
  5521 O1      37.3015  26.6095  21.5623   O         1 RES1   0.0000
  5522 O1      23.3707  35.5394  20.0873   O         1 RES1   0.0000
  5523 O1      21.2163  35.5394  24.4997   O         1 RES1   0.0000
  5524 O1      20.0873  23.3707  35.5394   O         1 RES1   0.0000
  5525 O1      24.4997  21.2163  35.5394   O         1 RES1   0.0000
  5526 O1      35.5394  20.0873  23.3707   O         1 RES1   0.0000
  5527 O1      35.5394  24.4997  21.2163   O         1 RES1   0.0000
  5528 O1      31.9457  26.3259  37.2854   O         1 RES1   0.0000
  5529 O1      30.4761  18.2611  37.2854   O         1 RES1   0.0000
  5530 O1      37.2854  31.9457  26.3259   O         1 RES1   0.0000
  5531 O1      37.2854  30.4761  18.2611   O         1 RES1   0.0000
  5532 O1      26.3259  37.2854  31.9457   O         1 RES1   0.0000
  5533 O1      18.2611  37.2854  30.4761   O         1 RES1   0.0000
  5534 O2      37.0340  28.3877  16.6809   O         1 RES1   0.0000
  5535 O2      37.0340  34.0341  27.9061   O         1 RES1   0.0000
  5536 O2      27.9061  37.0340  34.0341   O         1 RES1   0.0000
  5537 O2      34.0341  27.9061  37.0340   O         1 RES1   0.0000
  5538 O2      34.3052  25.1167  36.8235   O         1 RES1   0.0000
  5539 O2      28.1166  19.4703  36.8235   O         1 RES1   0.0000
  5540 O2      36.8235  34.3052  25.1167   O         1 RES1   0.0000
  5541 O2      36.8235  28.1166  19.4703   O         1 RES1   0.0000
  5542 O2      25.1167  36.8235  34.3052   O         1 RES1   0.0000
  5543 O2      19.4703  36.8235  28.1166   O         1 RES1   0.0000
  5557 O2      37.0696  25.3522  19.2348   O         1 RES1   0.0000
  5558 O2      25.3522  37.0696  19.2348   O         1 RES1   0.0000
  5559 O2      37.0696  19.2348  25.3522   O         1 RES1   0.0000
  5562 Zr      26.9507  26.5403  42.1285   Z         1 RES1   0.0000
  5569 O1      21.5623  25.1203  35.8123   O         1 RES1   0.0000
  5571 O1      17.9775  21.5623  42.9551   O         1 RES1   0.0000
  5572 O1      26.6095  23.0247  42.9551   O         1 RES1   0.0000
  5573 O1      25.1203  17.9775  39.3971   O         1 RES1   0.0000
  5574 O1      25.1203  26.6095  40.8595   O         1 RES1   0.0000
  5587 O1      21.2305  28.9744  36.1083   O         1 RES1   0.0000
  5588 O1      23.3565  33.4474  36.1083   O         1 RES1   0.0000
  5595 O1      28.9744  18.2735  39.0653   O         1 RES1   0.0000
  5596 O1      33.4474  18.2735  41.1913   O         1 RES1   0.0000
  5597 O1      28.9744  26.3135  41.1913   O         1 RES1   0.0000
  5598 O1      33.4474  26.3135  39.0653   O         1 RES1   0.0000
  5603 O1      35.2309  32.2739  42.3648   O         1 RES1   0.0000
  5604 O1      35.2309  30.1479  37.8918   O         1 RES1   0.0000
  5605 O1      27.1909  30.1479  42.3648   O         1 RES1   0.0000
  5606 O1      27.1909  32.2739  37.8918   O         1 RES1   0.0000
  5611 O1      21.2163  26.8824  37.9221   O         1 RES1   0.0000
  5612 O1      23.3707  26.8824  42.3345   O         1 RES1   0.0000
  5615 O1      26.8824  20.0873  39.0511   O         1 RES1   0.0000
  5616 O1      26.8824  24.4997  41.2055   O         1 RES1   0.0000
  5637 O1      27.1785  34.0538  39.3935   O         1 RES1   0.0000
  5638 O1      35.2433  34.0538  40.8631   O         1 RES1   0.0000
  5639 O1      27.1785  28.3680  40.8631   O         1 RES1   0.0000
  5640 O1      35.2433  28.3680  39.3935   O         1 RES1   0.0000
  5641 O1      30.4761  26.3259  42.9712   O         1 RES1   0.0000
  5642 O1      31.9457  18.2611  42.9712   O         1 RES1   0.0000
  5644 O1      25.1364  31.9457  36.0959   O         1 RES1   0.0000
  5647 C1      20.6955  30.1248  36.0976   C         1 RES1   0.0000
  5648 C1      23.8915  32.2970  36.0976   C         1 RES1   0.0000
  5655 C1      30.1248  18.2628  38.5303   C         1 RES1   0.0000
  5656 C1      32.2970  18.2628  41.7263   C         1 RES1   0.0000
  5657 C1      30.1248  26.3242  41.7263   C         1 RES1   0.0000
  5658 C1      32.2970  26.3242  38.5303   C         1 RES1   0.0000
  5663 C1      35.2416  32.8089  41.2144   C         1 RES1   0.0000
  5664 C1      35.2416  29.6129  39.0422   C         1 RES1   0.0000
  5665 C1      27.1802  29.6129  41.2144   C         1 RES1   0.0000
  5666 C1      27.1802  32.8089  39.0422   C         1 RES1   0.0000
  5671 C2      21.6550  31.3090  36.1030   C         1 RES1   0.0000
  5672 C2      22.9320  31.1128  36.1030   C         1 RES1   0.0000
  5679 C2      31.3090  18.2682  39.4898   C         1 RES1   0.0000
  5680 C2      31.1128  18.2682  40.7668   C         1 RES1   0.0000
  5681 C2      31.3090  26.3188  40.7668   C         1 RES1   0.0000
  5682 C2      31.1128  26.3188  39.4898   C         1 RES1   0.0000
  5687 C2      35.2362  31.8494  40.0302   C         1 RES1   0.0000
  5688 C2      35.2362  30.5724  40.2264   C         1 RES1   0.0000
  5689 C2      27.1856  30.5724  40.0302   C         1 RES1   0.0000
  5690 C2      27.1856  31.8494  40.2264   C         1 RES1   0.0000
  5695 H       21.3215  32.1775  36.1048   H         1 RES1   0.0000
  5696 H       23.2655  30.2443  36.1048   H         1 RES1   0.0000
  5703 H       32.1775  18.2700  39.1563   H         1 RES1   0.0000
  5704 H       30.2443  18.2700  41.1003   H         1 RES1   0.0000
  5705 H       32.1775  26.3170  41.1003   H         1 RES1   0.0000
  5706 H       30.2443  26.3170  39.1563   H         1 RES1   0.0000
  5711 H       35.2344  32.1829  39.1617   H         1 RES1   0.0000
  5712 H       35.2344  30.2389  41.0949   H         1 RES1   0.0000
  5713 H       27.1874  30.2389  39.1617   H         1 RES1   0.0000
  5714 H       27.1874  32.1829  41.0949   H         1 RES1   0.0000
  5719 C1      21.2341  23.8951  35.6696   C         1 RES1   0.0000
  5720 C1      23.3529  20.6919  35.6696   C         1 RES1   0.0000
  5723 C1      17.8348  21.2341  41.7299   C         1 RES1   0.0000
  5724 C1      17.8348  23.3529  38.5267   C         1 RES1   0.0000
  5725 C1      26.7522  23.3529  41.7299   C         1 RES1   0.0000
  5726 C1      26.7522  21.2341  38.5267   C         1 RES1   0.0000
  5727 C1      23.8951  17.8348  39.0689   C         1 RES1   0.0000
  5728 C1      20.6919  17.8348  41.1877   C         1 RES1   0.0000
  5729 C1      23.8951  26.7522  41.1877   C         1 RES1   0.0000
  5730 C1      20.6919  26.7522  39.0689   C         1 RES1   0.0000
  5743 C2      22.4130  22.9445  35.6714   C         1 RES1   0.0000
  5744 C2      22.1740  21.6425  35.6714   C         1 RES1   0.0000
  5747 C2      17.8366  22.4130  40.7793   C         1 RES1   0.0000
  5748 C2      17.8366  22.1740  39.4773   C         1 RES1   0.0000
  5749 C2      26.7504  22.1740  40.7793   C         1 RES1   0.0000
  5750 C2      26.7504  22.4130  39.4773   C         1 RES1   0.0000
  5751 C2      22.9445  17.8366  40.2478   C         1 RES1   0.0000
  5752 C2      21.6425  17.8366  40.0088   C         1 RES1   0.0000
  5753 C2      22.9445  26.7504  40.0088   C         1 RES1   0.0000
  5754 C2      21.6425  26.7504  40.2478   C         1 RES1   0.0000
  5767 H       23.2851  23.2673  35.6714   H         1 RES1   0.0000
  5768 H       21.3019  21.3197  35.6714   H         1 RES1   0.0000
  5771 H       17.8366  23.2851  41.1021   H         1 RES1   0.0000
  5772 H       17.8366  21.3019  39.1545   H         1 RES1   0.0000
  5773 H       26.7504  21.3019  41.1021   H         1 RES1   0.0000
  5774 H       26.7504  23.2851  39.1545   H         1 RES1   0.0000
  5775 H       23.2673  17.8366  41.1199   H         1 RES1   0.0000
  5776 H       21.3197  17.8366  39.1367   H         1 RES1   0.0000
  5777 H       23.2673  26.7504  39.1367   H         1 RES1   0.0000
  5778 H       21.3197  26.7504  41.1199   H         1 RES1   0.0000
  5797 O2      28.3877  34.5157  37.0340   O         1 RES1   0.0000
  5798 O2      34.0341  34.5157  43.2226   O         1 RES1   0.0000
  5799 O2      28.3877  27.9061  43.2226   O         1 RES1   0.0000
  5800 O2      28.1166  25.1167  43.4331   O         1 RES1   0.0000
  5801 O2      34.3052  19.4703  43.4331   O         1 RES1   0.0000
  5802 O2      25.5983  28.1166  42.9515   O         1 RES1   0.0000
  5803 O2      25.5983  34.3052  37.3051   O         1 RES1   0.0000
  5826 O2      25.3522  25.3522  43.1870   O         1 RES1   0.0000
  5832 Zr      38.1281  26.9507  35.8815   Z         1 RES1   0.0000
  5839 Zr      26.9507  35.8815  38.1281   Z         1 RES1   0.0000
  5840 Zr      35.4711  35.8815  42.1285   Z         1 RES1   0.0000
  5848 O1      23.0247  37.3015  35.8123   O         1 RES1   0.0000
  5852 O1      37.3015  17.9775  40.8595   O         1 RES1   0.0000
  5853 O1      37.3015  26.6095  39.3971   O         1 RES1   0.0000
  5854 O1      23.3707  35.5394  37.9221   O         1 RES1   0.0000
  5855 O1      21.2163  35.5394  42.3345   O         1 RES1   0.0000
  5858 O1      35.5394  20.0873  41.2055   O         1 RES1   0.0000
  5859 O1      35.5394  24.4997  39.0511   O         1 RES1   0.0000
  5863 O1      37.2854  30.4761  36.0959   O         1 RES1   0.0000
  5866 O2      37.0340  28.3877  34.5157   O         1 RES1   0.0000
  5873 O2      36.8235  34.3052  42.9515   O         1 RES1   0.0000
  5874 O2      36.8235  28.1166  37.3051   O         1 RES1   0.0000
  5894 O2      37.0696  25.3522  37.0696   O         1 RES1   0.0000
  5896 O2      25.3522  37.0696  37.0696   O         1 RES1   0.0000
  5897 O2      37.0696  19.2348  43.1870   O         1 RES1   0.0000
  5900 Zr      26.5403  42.1285   9.1159   Z         1 RES1   0.0000
  5912 O1      23.0247  42.9551   8.7747   O         1 RES1   0.0000
  5935 O1      18.2735  39.0653  11.1396   O         1 RES1   0.0000
  5936 O1      18.2735  41.1913  15.6126   O         1 RES1   0.0000
  5937 O1      26.3135  41.1913  11.1396   O         1 RES1   0.0000
  5938 O1      26.3135  39.0653  15.6126   O         1 RES1   0.0000
  5943 O1      32.2739  42.3648  17.3961   O         1 RES1   0.0000
  5944 O1      30.1479  37.8918  17.3961   O         1 RES1   0.0000
  5945 O1      30.1479  42.3648   9.3561   O         1 RES1   0.0000
  5946 O1      32.2739  37.8918   9.3561   O         1 RES1   0.0000
  5957 O1      20.0873  39.0511   9.0476   O         1 RES1   0.0000
  5959 O1      24.4997  41.2055   9.0476   O         1 RES1   0.0000
  5979 O1      34.0538  39.3935   9.3437   O         1 RES1   0.0000
  5980 O1      34.0538  40.8631  17.4085   O         1 RES1   0.0000
  5981 O1      28.3680  40.8631   9.3437   O         1 RES1   0.0000
  5982 O1      28.3680  39.3935  17.4085   O         1 RES1   0.0000
  5993 O1      26.3259  42.9712  12.6413   O         1 RES1   0.0000
  5994 O1      18.2611  42.9712  14.1109   O         1 RES1   0.0000
  5999 C1      18.2628  38.5303  12.2900   C         1 RES1   0.0000
  6000 C1      18.2628  41.7263  14.4622   C         1 RES1   0.0000
  6001 C1      26.3242  41.7263  12.2900   C         1 RES1   0.0000
  6002 C1      26.3242  38.5303  14.4622   C         1 RES1   0.0000
  6007 C1      32.8089  41.2144  17.4068   C         1 RES1   0.0000
  6008 C1      29.6129  39.0422  17.4068   C         1 RES1   0.0000
  6009 C1      29.6129  41.2144   9.3454   C         1 RES1   0.0000
  6010 C1      32.8089  39.0422   9.3454   C         1 RES1   0.0000
  6023 C2      18.2682  39.4898  13.4742   C         1 RES1   0.0000
  6024 C2      18.2682  40.7668  13.2780   C         1 RES1   0.0000
  6025 C2      26.3188  40.7668  13.4742   C         1 RES1   0.0000
  6026 C2      26.3188  39.4898  13.2780   C         1 RES1   0.0000
  6031 C2      31.8494  40.0302  17.4014   C         1 RES1   0.0000
  6032 C2      30.5724  40.2264  17.4014   C         1 RES1   0.0000
  6033 C2      30.5724  40.0302   9.3508   C         1 RES1   0.0000
  6034 C2      31.8494  40.2264   9.3508   C         1 RES1   0.0000
  6047 H       18.2700  39.1563  14.3427   H         1 RES1   0.0000
  6048 H       18.2700  41.1003  12.4095   H         1 RES1   0.0000
  6049 H       26.3170  41.1003  14.3427   H         1 RES1   0.0000
  6050 H       26.3170  39.1563  12.4095   H         1 RES1   0.0000
  6055 H       32.1829  39.1617  17.3996   H         1 RES1   0.0000
  6056 H       30.2389  41.0949  17.3996   H         1 RES1   0.0000
  6057 H       30.2389  39.1617   9.3526   H         1 RES1   0.0000
  6058 H       32.1829  41.0949   9.3526   H         1 RES1   0.0000
  6069 C1      23.3529  41.7299   8.9174   C         1 RES1   0.0000
  6070 C1      21.2341  38.5267   8.9174   C         1 RES1   0.0000
  6093 C2      22.1740  40.7793   8.9156   C         1 RES1   0.0000
  6094 C2      22.4130  39.4773   8.9156   C         1 RES1   0.0000
  6117 H       21.3019  41.1021   8.9156   H         1 RES1   0.0000
  6118 H       23.2851  39.1545   8.9156   H         1 RES1   0.0000
  6141 O2      34.5157  37.0340  10.5529   O         1 RES1   0.0000
  6142 O2      34.5157  43.2226  16.1993   O         1 RES1   0.0000
  6143 O2      27.9061  43.2226  10.5529   O         1 RES1   0.0000
  6154 O2      25.1167  43.4331  10.2818   O         1 RES1   0.0000
  6155 O2      19.4703  43.4331  16.4704   O         1 RES1   0.0000
  6187 Zr      35.8815  38.1281   9.1159   Z         1 RES1   0.0000
  6189 Zr      35.8815  42.1285  17.6363   Z         1 RES1   0.0000
  6207 O1      17.9775  40.8595  19.4667   O         1 RES1   0.0000
  6208 O1      26.6095  39.3971  19.4667   O         1 RES1   0.0000
  6215 O1      20.0873  41.2055  17.7046   O         1 RES1   0.0000
  6216 O1      24.4997  39.0511  17.7046   O         1 RES1   0.0000
  6224 O1      30.4761  36.0959  19.4506   O         1 RES1   0.0000
  6235 O2      34.3052  42.9515  18.9887   O         1 RES1   0.0000
  6236 O2      28.1166  37.3051  18.9887   O         1 RES1   0.0000
  6270 Zr      26.5403  42.1285  26.9507   Z         1 RES1   0.0000
  6278 O1      21.5623  42.9551  17.9775   O         1 RES1   0.0000
  6279 O1      23.0247  42.9551  26.6095   O         1 RES1   0.0000
  6280 O1      17.9775  39.3971  25.1203   O         1 RES1   0.0000
  6281 O1      26.6095  40.8595  25.1203   O         1 RES1   0.0000
  6282 O1      25.1203  35.8123  21.5623   O         1 RES1   0.0000
  6300 O1      18.2735  39.0653  28.9744   O         1 RES1   0.0000
  6301 O1      18.2735  41.1913  33.4474   O         1 RES1   0.0000
  6302 O1      26.3135  41.1913  28.9744   O         1 RES1   0.0000
  6303 O1      26.3135  39.0653  33.4474   O         1 RES1   0.0000
  6304 O1      28.9744  36.1083  21.2305   O         1 RES1   0.0000
  6305 O1      33.4474  36.1083  23.3565   O         1 RES1   0.0000
  6308 O1      32.2739  42.3648  35.2309   O         1 RES1   0.0000
  6309 O1      30.1479  37.8918  35.2309   O         1 RES1   0.0000
  6310 O1      30.1479  42.3648  27.1909   O         1 RES1   0.0000
  6311 O1      32.2739  37.8918  27.1909   O         1 RES1   0.0000
  6322 O1      20.0873  39.0511  26.8824   O         1 RES1   0.0000
  6323 O1      24.4997  41.2055  26.8824   O         1 RES1   0.0000
  6324 O1      26.8824  37.9221  21.2163   O         1 RES1   0.0000
  6325 O1      26.8824  42.3345  23.3707   O         1 RES1   0.0000
  6342 O1      34.0538  39.3935  27.1785   O         1 RES1   0.0000
  6343 O1      34.0538  40.8631  35.2433   O         1 RES1   0.0000
  6344 O1      28.3680  40.8631  27.1785   O         1 RES1   0.0000
  6345 O1      28.3680  39.3935  35.2433   O         1 RES1   0.0000
  6351 O1      31.9457  36.0959  25.1364   O         1 RES1   0.0000
  6354 O1      26.3259  42.9712  30.4761   O         1 RES1   0.0000
  6355 O1      18.2611  42.9712  31.9457   O         1 RES1   0.0000
  6360 C1      18.2628  38.5303  30.1248   C         1 RES1   0.0000
  6361 C1      18.2628  41.7263  32.2970   C         1 RES1   0.0000
  6362 C1      26.3242  41.7263  30.1248   C         1 RES1   0.0000
  6363 C1      26.3242  38.5303  32.2970   C         1 RES1   0.0000
  6364 C1      30.1248  36.0976  20.6955   C         1 RES1   0.0000
  6365 C1      32.2970  36.0976  23.8915   C         1 RES1   0.0000
  6368 C1      32.8089  41.2144  35.2416   C         1 RES1   0.0000
  6369 C1      29.6129  39.0422  35.2416   C         1 RES1   0.0000
  6370 C1      29.6129  41.2144  27.1802   C         1 RES1   0.0000
  6371 C1      32.8089  39.0422  27.1802   C         1 RES1   0.0000
  6384 C2      18.2682  39.4898  31.3090   C         1 RES1   0.0000
  6385 C2      18.2682  40.7668  31.1128   C         1 RES1   0.0000
  6386 C2      26.3188  40.7668  31.3090   C         1 RES1   0.0000
  6387 C2      26.3188  39.4898  31.1128   C         1 RES1   0.0000
  6388 C2      31.3090  36.1030  21.6550   C         1 RES1   0.0000
  6389 C2      31.1128  36.1030  22.9320   C         1 RES1   0.0000
  6392 C2      31.8494  40.0302  35.2362   C         1 RES1   0.0000
  6393 C2      30.5724  40.2264  35.2362   C         1 RES1   0.0000
  6394 C2      30.5724  40.0302  27.1856   C         1 RES1   0.0000
  6395 C2      31.8494  40.2264  27.1856   C         1 RES1   0.0000
  6408 H       18.2700  39.1563  32.1775   H         1 RES1   0.0000
  6409 H       18.2700  41.1003  30.2443   H         1 RES1   0.0000
  6410 H       26.3170  41.1003  32.1775   H         1 RES1   0.0000
  6411 H       26.3170  39.1563  30.2443   H         1 RES1   0.0000
  6412 H       32.1775  36.1048  21.3215   H         1 RES1   0.0000
  6413 H       30.2443  36.1048  23.2655   H         1 RES1   0.0000
  6416 H       32.1829  39.1617  35.2344   H         1 RES1   0.0000
  6417 H       30.2389  41.0949  35.2344   H         1 RES1   0.0000
  6418 H       30.2389  39.1617  27.1874   H         1 RES1   0.0000
  6419 H       32.1829  41.0949  27.1874   H         1 RES1   0.0000
  6428 C1      21.2341  41.7299  17.8348   C         1 RES1   0.0000
  6429 C1      23.3529  38.5267  17.8348   C         1 RES1   0.0000
  6430 C1      23.3529  41.7299  26.7522   C         1 RES1   0.0000
  6431 C1      21.2341  38.5267  26.7522   C         1 RES1   0.0000
  6432 C1      17.8348  39.0689  23.8951   C         1 RES1   0.0000
  6433 C1      17.8348  41.1877  20.6919   C         1 RES1   0.0000
  6434 C1      26.7522  41.1877  23.8951   C         1 RES1   0.0000
  6435 C1      26.7522  39.0689  20.6919   C         1 RES1   0.0000
  6436 C1      23.8951  35.6696  21.2341   C         1 RES1   0.0000
  6437 C1      20.6919  35.6696  23.3529   C         1 RES1   0.0000
  6452 C2      22.4130  40.7793  17.8366   C         1 RES1   0.0000
  6453 C2      22.1740  39.4773  17.8366   C         1 RES1   0.0000
  6454 C2      22.1740  40.7793  26.7504   C         1 RES1   0.0000
  6455 C2      22.4130  39.4773  26.7504   C         1 RES1   0.0000
  6456 C2      17.8366  40.2478  22.9445   C         1 RES1   0.0000
  6457 C2      17.8366  40.0088  21.6425   C         1 RES1   0.0000
  6458 C2      26.7504  40.0088  22.9445   C         1 RES1   0.0000
  6459 C2      26.7504  40.2478  21.6425   C         1 RES1   0.0000
  6460 C2      22.9445  35.6714  22.4130   C         1 RES1   0.0000
  6461 C2      21.6425  35.6714  22.1740   C         1 RES1   0.0000
  6476 H       23.2851  41.1021  17.8366   H         1 RES1   0.0000
  6477 H       21.3019  39.1545  17.8366   H         1 RES1   0.0000
  6478 H       21.3019  41.1021  26.7504   H         1 RES1   0.0000
  6479 H       23.2851  39.1545  26.7504   H         1 RES1   0.0000
  6480 H       17.8366  41.1199  23.2673   H         1 RES1   0.0000
  6481 H       17.8366  39.1367  21.3197   H         1 RES1   0.0000
  6482 H       26.7504  39.1367  23.2673   H         1 RES1   0.0000
  6483 H       26.7504  41.1199  21.3197   H         1 RES1   0.0000
  6484 H       23.2673  35.6714  23.2851   H         1 RES1   0.0000
  6485 H       21.3197  35.6714  21.3019   H         1 RES1   0.0000
  6502 O2      34.5157  37.0340  28.3877   O         1 RES1   0.0000
  6503 O2      34.5157  43.2226  34.0341   O         1 RES1   0.0000
  6504 O2      27.9061  43.2226  28.3877   O         1 RES1   0.0000
  6508 O2      28.1166  42.9515  25.5983   O         1 RES1   0.0000
  6509 O2      34.3052  37.3051  25.5983   O         1 RES1   0.0000
  6512 O2      25.1167  43.4331  28.1166   O         1 RES1   0.0000
  6513 O2      19.4703  43.4331  34.3052   O         1 RES1   0.0000
  6533 O2      25.3522  43.1870  25.3522   O         1 RES1   0.0000
  6542 Zr      35.8815  38.1281  26.9507   Z         1 RES1   0.0000
  6543 Zr      35.8815  42.1285  35.4711   Z         1 RES1   0.0000
  6556 O1      17.9775  40.8595  37.3015   O         1 RES1   0.0000
  6557 O1      26.6095  39.3971  37.3015   O         1 RES1   0.0000
  6558 O1      37.3015  35.8123  23.0247   O         1 RES1   0.0000
  6562 O1      20.0873  41.2055  35.5394   O         1 RES1   0.0000
  6563 O1      24.4997  39.0511  35.5394   O         1 RES1   0.0000
  6564 O1      35.5394  37.9221  23.3707   O         1 RES1   0.0000
  6565 O1      35.5394  42.3345  21.2163   O         1 RES1   0.0000
  6567 O1      30.4761  36.0959  37.2854   O         1 RES1   0.0000
  6577 O2      34.3052  42.9515  36.8235   O         1 RES1   0.0000
  6578 O2      28.1166  37.3051  36.8235   O         1 RES1   0.0000
  6598 O2      37.0696  43.1870  19.2348   O         1 RES1   0.0000
  6601 O2      37.0696  37.0696  25.3522   O         1 RES1   0.0000
  6611 O1      21.5623  42.9551  35.8123   O         1 RES1   0.0000
  6613 O1      17.9775  39.3971  42.9551   O         1 RES1   0.0000
  6614 O1      26.6095  40.8595  42.9551   O         1 RES1   0.0000
  6615 O1      25.1203  35.8123  39.3971   O         1 RES1   0.0000
  6637 O1      28.9744  36.1083  39.0653   O         1 RES1   0.0000
  6638 O1      33.4474  36.1083  41.1913   O         1 RES1   0.0000
  6657 O1      26.8824  37.9221  39.0511   O         1 RES1   0.0000
  6658 O1      26.8824  42.3345  41.2055   O         1 RES1   0.0000
  6684 O1      31.9457  36.0959  42.9712   O         1 RES1   0.0000
  6697 C1      30.1248  36.0976  38.5303   C         1 RES1   0.0000
  6698 C1      32.2970  36.0976  41.7263   C         1 RES1   0.0000
  6721 C2      31.3090  36.1030  39.4898   C         1 RES1   0.0000
  6722 C2      31.1128  36.1030  40.7668   C         1 RES1   0.0000
  6745 H       32.1775  36.1048  39.1563   H         1 RES1   0.0000
  6746 H       30.2443  36.1048  41.1003   H         1 RES1   0.0000
  6761 C1      21.2341  41.7299  35.6696   C         1 RES1   0.0000
  6762 C1      23.3529  38.5267  35.6696   C         1 RES1   0.0000
  6765 C1      17.8348  39.0689  41.7299   C         1 RES1   0.0000
  6766 C1      17.8348  41.1877  38.5267   C         1 RES1   0.0000
  6767 C1      26.7522  41.1877  41.7299   C         1 RES1   0.0000
  6768 C1      26.7522  39.0689  38.5267   C         1 RES1   0.0000
  6769 C1      23.8951  35.6696  39.0689   C         1 RES1   0.0000
  6770 C1      20.6919  35.6696  41.1877   C         1 RES1   0.0000
  6785 C2      22.4130  40.7793  35.6714   C         1 RES1   0.0000
  6786 C2      22.1740  39.4773  35.6714   C         1 RES1   0.0000
  6789 C2      17.8366  40.2478  40.7793   C         1 RES1   0.0000
  6790 C2      17.8366  40.0088  39.4773   C         1 RES1   0.0000
  6791 C2      26.7504  40.0088  40.7793   C         1 RES1   0.0000
  6792 C2      26.7504  40.2478  39.4773   C         1 RES1   0.0000
  6793 C2      22.9445  35.6714  40.2478   C         1 RES1   0.0000
  6794 C2      21.6425  35.6714  40.0088   C         1 RES1   0.0000
  6809 H       23.2851  41.1021  35.6714   H         1 RES1   0.0000
  6810 H       21.3019  39.1545  35.6714   H         1 RES1   0.0000
  6813 H       17.8366  41.1199  41.1021   H         1 RES1   0.0000
  6814 H       17.8366  39.1367  39.1545   H         1 RES1   0.0000
  6815 H       26.7504  39.1367  41.1021   H         1 RES1   0.0000
  6816 H       26.7504  41.1199  39.1545   H         1 RES1   0.0000
  6817 H       23.2673  35.6714  41.1199   H         1 RES1   0.0000
  6818 H       21.3197  35.6714  39.1367   H         1 RES1   0.0000
  6842 O2      28.1166  42.9515  43.4331   O         1 RES1   0.0000
  6843 O2      34.3052  37.3051  43.4331   O         1 RES1   0.0000
  6868 O2      25.3522  43.1870  43.1870   O         1 RES1   0.0000
  6895 O1      37.3015  35.8123  40.8595   O         1 RES1   0.0000
  6901 O1      35.5394  37.9221  41.2055   O         1 RES1   0.0000
  6902 O1      35.5394  42.3345  39.0511   O         1 RES1   0.0000
  6940 O2      37.0696  43.1870  37.0696   O         1 RES1   0.0000
  6944 O2      37.0696  37.0696  43.1870   O         1 RES1   0.0000
  6946 Zr      42.1285   9.1159   8.7055   Z         1 RES1   0.0000
  6987 O1      41.1913  11.1396   8.4787   O         1 RES1   0.0000
  6988 O1      39.0653  15.6126   8.4787   O         1 RES1   0.0000
  7005 O1      42.3648  17.3961  14.4391   O         1 RES1   0.0000
  7006 O1      37.8918  17.3961  12.3131   O         1 RES1   0.0000
  7007 O1      42.3648   9.3561  12.3131   O         1 RES1   0.0000
  7008 O1      37.8918   9.3561  14.4391   O         1 RES1   0.0000
  7031 O1      39.3935   9.3437  16.2190   O         1 RES1   0.0000
  7032 O1      40.8631  17.4085  16.2190   O         1 RES1   0.0000
  7033 O1      40.8631   9.3437  10.5332   O         1 RES1   0.0000
  7034 O1      39.3935  17.4085  10.5332   O         1 RES1   0.0000
  7047 O1      42.9712  12.6413   8.4911   O         1 RES1   0.0000
  7055 C1      41.7263  12.2900   8.4894   C         1 RES1   0.0000
  7056 C1      38.5303  14.4622   8.4894   C         1 RES1   0.0000
  7073 C1      41.2144  17.4068  14.9741   C         1 RES1   0.0000
  7074 C1      39.0422  17.4068  11.7781   C         1 RES1   0.0000
  7075 C1      41.2144   9.3454  11.7781   C         1 RES1   0.0000
  7076 C1      39.0422   9.3454  14.9741   C         1 RES1   0.0000
  7079 C2      40.7668  13.4742   8.4840   C         1 RES1   0.0000
  7080 C2      39.4898  13.2780   8.4840   C         1 RES1   0.0000
  7097 C2      40.0302  17.4014  14.0146   C         1 RES1   0.0000
  7098 C2      40.2264  17.4014  12.7376   C         1 RES1   0.0000
  7099 C2      40.0302   9.3508  12.7376   C         1 RES1   0.0000
  7100 C2      40.2264   9.3508  14.0146   C         1 RES1   0.0000
  7103 H       41.1003  14.3427   8.4822   H         1 RES1   0.0000
  7104 H       39.1563  12.4095   8.4822   H         1 RES1   0.0000
  7121 H       39.1617  17.3996  14.3481   H         1 RES1   0.0000
  7122 H       41.0949  17.3996  12.4041   H         1 RES1   0.0000
  7123 H       39.1617   9.3526  12.4041   H         1 RES1   0.0000
  7124 H       41.0949   9.3526  14.3481   H         1 RES1   0.0000
  7197 O2      43.2226  16.1993  16.6809   O         1 RES1   0.0000
  7198 O2      43.2226  10.5529  10.0713   O         1 RES1   0.0000
  7252 Zr      42.1285  17.6363  18.0467   Z         1 RES1   0.0000
  7282 O1      39.3971  19.4667   8.7747   O         1 RES1   0.0000
  7310 O1      36.0959  19.4506  12.6413   O         1 RES1   0.0000
  7326 O2      42.9515  18.9887  16.4704   O         1 RES1   0.0000
  7327 O2      37.3051  18.9887  10.2818   O         1 RES1   0.0000
  7363 Zr      42.1285   9.1159  26.5403   Z         1 RES1   0.0000
  7383 O1      42.9551   8.7747  23.0247   O         1 RES1   0.0000
  7396 O1      39.0653  11.1396  18.2735   O         1 RES1   0.0000
  7397 O1      41.1913  15.6126  18.2735   O         1 RES1   0.0000
  7398 O1      41.1913  11.1396  26.3135   O         1 RES1   0.0000
  7399 O1      39.0653  15.6126  26.3135   O         1 RES1   0.0000
  7416 O1      42.3648  17.3961  32.2739   O         1 RES1   0.0000
  7417 O1      37.8918  17.3961  30.1479   O         1 RES1   0.0000
  7418 O1      42.3648   9.3561  30.1479   O         1 RES1   0.0000
  7419 O1      37.8918   9.3561  32.2739   O         1 RES1   0.0000
  7420 O1      39.0511   9.0476  20.0873   O         1 RES1   0.0000
  7422 O1      41.2055   9.0476  24.4997   O         1 RES1   0.0000
  7440 O1      39.3935   9.3437  34.0538   O         1 RES1   0.0000
  7441 O1      40.8631  17.4085  34.0538   O         1 RES1   0.0000
  7442 O1      40.8631   9.3437  28.3680   O         1 RES1   0.0000
  7443 O1      39.3935  17.4085  28.3680   O         1 RES1   0.0000
  7454 O1      42.9712  12.6413  26.3259   O         1 RES1   0.0000
  7455 O1      42.9712  14.1109  18.2611   O         1 RES1   0.0000
  7460 C1      38.5303  12.2900  18.2628   C         1 RES1   0.0000
  7461 C1      41.7263  14.4622  18.2628   C         1 RES1   0.0000
  7462 C1      41.7263  12.2900  26.3242   C         1 RES1   0.0000
  7463 C1      38.5303  14.4622  26.3242   C         1 RES1   0.0000
  7480 C1      41.2144  17.4068  32.8089   C         1 RES1   0.0000
  7481 C1      39.0422  17.4068  29.6129   C         1 RES1   0.0000
  7482 C1      41.2144   9.3454  29.6129   C         1 RES1   0.0000
  7483 C1      39.0422   9.3454  32.8089   C         1 RES1   0.0000
  7484 C2      39.4898  13.4742  18.2682   C         1 RES1   0.0000
  7485 C2      40.7668  13.2780  18.2682   C         1 RES1   0.0000
  7486 C2      40.7668  13.4742  26.3188   C         1 RES1   0.0000
  7487 C2      39.4898  13.2780  26.3188   C         1 RES1   0.0000
  7504 C2      40.0302  17.4014  31.8494   C         1 RES1   0.0000
  7505 C2      40.2264  17.4014  30.5724   C         1 RES1   0.0000
  7506 C2      40.0302   9.3508  30.5724   C         1 RES1   0.0000
  7507 C2      40.2264   9.3508  31.8494   C         1 RES1   0.0000
  7508 H       39.1563  14.3427  18.2700   H         1 RES1   0.0000
  7509 H       41.1003  12.4095  18.2700   H         1 RES1   0.0000
  7510 H       41.1003  14.3427  26.3170   H         1 RES1   0.0000
  7511 H       39.1563  12.4095  26.3170   H         1 RES1   0.0000
  7528 H       39.1617  17.3996  32.1829   H         1 RES1   0.0000
  7529 H       41.0949  17.3996  30.2389   H         1 RES1   0.0000
  7530 H       39.1617   9.3526  30.2389   H         1 RES1   0.0000
  7531 H       41.0949   9.3526  32.1829   H         1 RES1   0.0000
  7542 C1      41.7299   8.9174  23.3529   C         1 RES1   0.0000
  7543 C1      38.5267   8.9174  21.2341   C         1 RES1   0.0000
  7566 C2      40.7793   8.9156  22.1740   C         1 RES1   0.0000
  7567 C2      39.4773   8.9156  22.4130   C         1 RES1   0.0000
  7590 H       41.1021   8.9156  21.3019   H         1 RES1   0.0000
  7591 H       39.1545   8.9156  23.2851   H         1 RES1   0.0000
  7604 O2      43.2226  16.1993  34.5157   O         1 RES1   0.0000
  7605 O2      43.2226  10.5529  27.9061   O         1 RES1   0.0000
  7615 O2      43.4331  10.2818  25.1167   O         1 RES1   0.0000
  7616 O2      43.4331  16.4704  19.4703   O         1 RES1   0.0000
  7650 Zr      42.1285  17.6363  35.8815   Z         1 RES1   0.0000
  7670 O1      40.8595  19.4667  17.9775   O         1 RES1   0.0000
  7671 O1      39.3971  19.4667  26.6095   O         1 RES1   0.0000
  7678 O1      41.2055  17.7046  20.0873   O         1 RES1   0.0000
  7679 O1      39.0511  17.7046  24.4997   O         1 RES1   0.0000
  7693 O1      36.0959  19.4506  30.4761   O         1 RES1   0.0000
  7706 O2      42.9515  18.9887  34.3052   O         1 RES1   0.0000
  7707 O2      37.3051  18.9887  28.1166   O         1 RES1   0.0000
  7730 O2      43.1870  19.2348  19.2348   O         1 RES1   0.0000
  7754 O1      42.9551   8.7747  40.8595   O         1 RES1   0.0000
  7767 O1      39.0653  11.1396  36.1083   O         1 RES1   0.0000
  7768 O1      41.1913  15.6126  36.1083   O         1 RES1   0.0000
  7791 O1      39.0511   9.0476  37.9221   O         1 RES1   0.0000
  7793 O1      41.2055   9.0476  42.3345   O         1 RES1   0.0000
  7826 O1      42.9712  14.1109  36.0959   O         1 RES1   0.0000
  7831 C1      38.5303  12.2900  36.0976   C         1 RES1   0.0000
  7832 C1      41.7263  14.4622  36.0976   C         1 RES1   0.0000
  7855 C2      39.4898  13.4742  36.1030   C         1 RES1   0.0000
  7856 C2      40.7668  13.2780  36.1030   C         1 RES1   0.0000
  7879 H       39.1563  14.3427  36.1048   H         1 RES1   0.0000
  7880 H       41.1003  12.4095  36.1048   H         1 RES1   0.0000
  7913 C1      41.7299   8.9174  41.1877   C         1 RES1   0.0000
  7914 C1      38.5267   8.9174  39.0689   C         1 RES1   0.0000
  7937 C2      40.7793   8.9156  40.0088   C         1 RES1   0.0000
  7938 C2      39.4773   8.9156  40.2478   C         1 RES1   0.0000
  7961 H       41.1021   8.9156  39.1367   H         1 RES1   0.0000
  7962 H       39.1545   8.9156  41.1199   H         1 RES1   0.0000
  7987 O2      43.4331  10.2818  42.9515   O         1 RES1   0.0000
  7988 O2      43.4331  16.4704  37.3051   O         1 RES1   0.0000
  8044 O1      40.8595  19.4667  35.8123   O         1 RES1   0.0000
  8052 O1      41.2055  17.7046  37.9221   O         1 RES1   0.0000
  8053 O1      39.0511  17.7046  42.3345   O         1 RES1   0.0000
  8106 O2      43.1870  19.2348  37.0696   O         1 RES1   0.0000
  8111 Zr      42.1285  26.9507   8.7055   Z         1 RES1   0.0000
  8124 O1      40.8595  25.1203   8.7747   O         1 RES1   0.0000
  8145 O1      41.1913  28.9744   8.4787   O         1 RES1   0.0000
  8146 O1      39.0653  33.4474   8.4787   O         1 RES1   0.0000
  8147 O1      36.1083  21.2305  11.1396   O         1 RES1   0.0000
  8148 O1      36.1083  23.3565  15.6126   O         1 RES1   0.0000
  8163 O1      42.3648  35.2309  14.4391   O         1 RES1   0.0000
  8164 O1      37.8918  35.2309  12.3131   O         1 RES1   0.0000
  8165 O1      42.3648  27.1909  12.3131   O         1 RES1   0.0000
  8166 O1      37.8918  27.1909  14.4391   O         1 RES1   0.0000
  8169 O1      37.9221  21.2163   9.0476   O         1 RES1   0.0000
  8171 O1      42.3345  23.3707   9.0476   O         1 RES1   0.0000
  8187 O1      39.3935  27.1785  16.2190   O         1 RES1   0.0000
  8188 O1      40.8631  35.2433  16.2190   O         1 RES1   0.0000
  8189 O1      40.8631  27.1785  10.5332   O         1 RES1   0.0000
  8190 O1      39.3935  35.2433  10.5332   O         1 RES1   0.0000
  8203 O1      42.9712  30.4761   8.4911   O         1 RES1   0.0000
  8206 O1      36.0959  25.1364  14.1109   O         1 RES1   0.0000
  8209 C1      41.7263  30.1248   8.4894   C         1 RES1   0.0000
  8210 C1      38.5303  32.2970   8.4894   C         1 RES1   0.0000
  8211 C1      36.0976  20.6955  12.2900   C         1 RES1   0.0000
  8212 C1      36.0976  23.8915  14.4622   C         1 RES1   0.0000
  8227 C1      41.2144  35.2416  14.9741   C         1 RES1   0.0000
  8228 C1      39.0422  35.2416  11.7781   C         1 RES1   0.0000
  8229 C1      41.2144  27.1802  11.7781   C         1 RES1   0.0000
  8230 C1      39.0422  27.1802  14.9741   C         1 RES1   0.0000
  8233 C2      40.7668  31.3090   8.4840   C         1 RES1   0.0000
  8234 C2      39.4898  31.1128   8.4840   C         1 RES1   0.0000
  8235 C2      36.1030  21.6550  13.4742   C         1 RES1   0.0000
  8236 C2      36.1030  22.9320  13.2780   C         1 RES1   0.0000
  8251 C2      40.0302  35.2362  14.0146   C         1 RES1   0.0000
  8252 C2      40.2264  35.2362  12.7376   C         1 RES1   0.0000
  8253 C2      40.0302  27.1856  12.7376   C         1 RES1   0.0000
  8254 C2      40.2264  27.1856  14.0146   C         1 RES1   0.0000
  8257 H       41.1003  32.1775   8.4822   H         1 RES1   0.0000
  8258 H       39.1563  30.2443   8.4822   H         1 RES1   0.0000
  8259 H       36.1048  21.3215  14.3427   H         1 RES1   0.0000
  8260 H       36.1048  23.2655  12.4095   H         1 RES1   0.0000
  8275 H       39.1617  35.2344  14.3481   H         1 RES1   0.0000
  8276 H       41.0949  35.2344  12.4041   H         1 RES1   0.0000
  8277 H       39.1617  27.1874  12.4041   H         1 RES1   0.0000
  8278 H       41.0949  27.1874  14.3481   H         1 RES1   0.0000
  8281 C1      41.1877  23.8951   8.9174   C         1 RES1   0.0000
  8282 C1      39.0689  20.6919   8.9174   C         1 RES1   0.0000
  8305 C2      40.0088  22.9445   8.9156   C         1 RES1   0.0000
  8306 C2      40.2478  21.6425   8.9156   C         1 RES1   0.0000
  8329 H       39.1367  23.2673   8.9156   H         1 RES1   0.0000
  8330 H       41.1199  21.3197   8.9156   H         1 RES1   0.0000
  8351 O2      43.2226  34.0341  16.6809   O         1 RES1   0.0000
  8352 O2      43.2226  28.3877  10.0713   O         1 RES1   0.0000
  8366 O2      42.9515  25.5983  10.2818   O         1 RES1   0.0000
  8367 O2      37.3051  25.5983  16.4704   O         1 RES1   0.0000
  8396 Zr      42.1285  35.4711  18.0467   Z         1 RES1   0.0000
  8417 O1      39.3971  37.3015   8.7747   O         1 RES1   0.0000
  8418 O1      35.8123  23.0247  19.4667   O         1 RES1   0.0000
  8426 O1      37.9221  23.3707  17.7046   O         1 RES1   0.0000
  8427 O1      42.3345  21.2163  17.7046   O         1 RES1   0.0000
  8439 O1      36.0959  37.2854  12.6413   O         1 RES1   0.0000
  8450 O2      42.9515  36.8235  16.4704   O         1 RES1   0.0000
  8451 O2      37.3051  36.8235  10.2818   O         1 RES1   0.0000
  8476 Zr      42.1285  26.9507  26.5403   Z         1 RES1   0.0000
  8485 O1      39.3971  25.1203  17.9775   O         1 RES1   0.0000
  8486 O1      40.8595  25.1203  26.6095   O         1 RES1   0.0000
  8487 O1      35.8123  21.5623  25.1203   O         1 RES1   0.0000
  8489 O1      42.9551  17.9775  21.5623   O         1 RES1   0.0000
  8490 O1      42.9551  26.6095  23.0247   O         1 RES1   0.0000
  8503 O1      39.0653  28.9744  18.2735   O         1 RES1   0.0000
  8504 O1      41.1913  33.4474  18.2735   O         1 RES1   0.0000
  8505 O1      41.1913  28.9744  26.3135   O         1 RES1   0.0000
  8506 O1      39.0653  33.4474  26.3135   O         1 RES1   0.0000
  8507 O1      36.1083  21.2305  28.9744   O         1 RES1   0.0000
  8508 O1      36.1083  23.3565  33.4474   O         1 RES1   0.0000
  8523 O1      42.3648  35.2309  32.2739   O         1 RES1   0.0000
  8524 O1      37.8918  35.2309  30.1479   O         1 RES1   0.0000
  8525 O1      42.3648  27.1909  30.1479   O         1 RES1   0.0000
  8526 O1      37.8918  27.1909  32.2739   O         1 RES1   0.0000
  8527 O1      39.0511  26.8824  20.0873   O         1 RES1   0.0000
  8528 O1      41.2055  26.8824  24.4997   O         1 RES1   0.0000
  8529 O1      37.9221  21.2163  26.8824   O         1 RES1   0.0000
  8530 O1      42.3345  23.3707  26.8824   O         1 RES1   0.0000
  8545 O1      39.3935  27.1785  34.0538   O         1 RES1   0.0000
  8546 O1      40.8631  35.2433  34.0538   O         1 RES1   0.0000
  8547 O1      40.8631  27.1785  28.3680   O         1 RES1   0.0000
  8548 O1      39.3935  35.2433  28.3680   O         1 RES1   0.0000
  8559 O1      42.9712  30.4761  26.3259   O         1 RES1   0.0000
  8560 O1      42.9712  31.9457  18.2611   O         1 RES1   0.0000
  8562 O1      36.0959  25.1364  31.9457   O         1 RES1   0.0000
  8563 C1      38.5303  30.1248  18.2628   C         1 RES1   0.0000
  8564 C1      41.7263  32.2970  18.2628   C         1 RES1   0.0000
  8565 C1      41.7263  30.1248  26.3242   C         1 RES1   0.0000
  8566 C1      38.5303  32.2970  26.3242   C         1 RES1   0.0000
  8567 C1      36.0976  20.6955  30.1248   C         1 RES1   0.0000
  8568 C1      36.0976  23.8915  32.2970   C         1 RES1   0.0000
  8583 C1      41.2144  35.2416  32.8089   C         1 RES1   0.0000
  8584 C1      39.0422  35.2416  29.6129   C         1 RES1   0.0000
  8585 C1      41.2144  27.1802  29.6129   C         1 RES1   0.0000
  8586 C1      39.0422  27.1802  32.8089   C         1 RES1   0.0000
  8587 C2      39.4898  31.3090  18.2682   C         1 RES1   0.0000
  8588 C2      40.7668  31.1128  18.2682   C         1 RES1   0.0000
  8589 C2      40.7668  31.3090  26.3188   C         1 RES1   0.0000
  8590 C2      39.4898  31.1128  26.3188   C         1 RES1   0.0000
  8591 C2      36.1030  21.6550  31.3090   C         1 RES1   0.0000
  8592 C2      36.1030  22.9320  31.1128   C         1 RES1   0.0000
  8607 C2      40.0302  35.2362  31.8494   C         1 RES1   0.0000
  8608 C2      40.2264  35.2362  30.5724   C         1 RES1   0.0000
  8609 C2      40.0302  27.1856  30.5724   C         1 RES1   0.0000
  8610 C2      40.2264  27.1856  31.8494   C         1 RES1   0.0000
  8611 H       39.1563  32.1775  18.2700   H         1 RES1   0.0000
  8612 H       41.1003  30.2443  18.2700   H         1 RES1   0.0000
  8613 H       41.1003  32.1775  26.3170   H         1 RES1   0.0000
  8614 H       39.1563  30.2443  26.3170   H         1 RES1   0.0000
  8615 H       36.1048  21.3215  32.1775   H         1 RES1   0.0000
  8616 H       36.1048  23.2655  30.2443   H         1 RES1   0.0000
  8631 H       39.1617  35.2344  32.1829   H         1 RES1   0.0000
  8632 H       41.0949  35.2344  30.2389   H         1 RES1   0.0000
  8633 H       39.1617  27.1874  30.2389   H         1 RES1   0.0000
  8634 H       41.0949  27.1874  32.1829   H         1 RES1   0.0000
  8635 C1      39.0689  23.8951  17.8348   C         1 RES1   0.0000
  8636 C1      41.1877  20.6919  17.8348   C         1 RES1   0.0000
  8637 C1      41.1877  23.8951  26.7522   C         1 RES1   0.0000
  8638 C1      39.0689  20.6919  26.7522   C         1 RES1   0.0000
  8639 C1      35.6696  21.2341  23.8951   C         1 RES1   0.0000
  8640 C1      35.6696  23.3529  20.6919   C         1 RES1   0.0000
  8643 C1      41.7299  17.8348  21.2341   C         1 RES1   0.0000
  8644 C1      38.5267  17.8348  23.3529   C         1 RES1   0.0000
  8645 C1      41.7299  26.7522  23.3529   C         1 RES1   0.0000
  8646 C1      38.5267  26.7522  21.2341   C         1 RES1   0.0000
  8659 C2      40.2478  22.9445  17.8366   C         1 RES1   0.0000
  8660 C2      40.0088  21.6425  17.8366   C         1 RES1   0.0000
  8661 C2      40.0088  22.9445  26.7504   C         1 RES1   0.0000
  8662 C2      40.2478  21.6425  26.7504   C         1 RES1   0.0000
  8663 C2      35.6714  22.4130  22.9445   C         1 RES1   0.0000
  8664 C2      35.6714  22.1740  21.6425   C         1 RES1   0.0000
  8667 C2      40.7793  17.8366  22.4130   C         1 RES1   0.0000
  8668 C2      39.4773  17.8366  22.1740   C         1 RES1   0.0000
  8669 C2      40.7793  26.7504  22.1740   C         1 RES1   0.0000
  8670 C2      39.4773  26.7504  22.4130   C         1 RES1   0.0000
  8683 H       41.1199  23.2673  17.8366   H         1 RES1   0.0000
  8684 H       39.1367  21.3197  17.8366   H         1 RES1   0.0000
  8685 H       39.1367  23.2673  26.7504   H         1 RES1   0.0000
  8686 H       41.1199  21.3197  26.7504   H         1 RES1   0.0000
  8687 H       35.6714  23.2851  23.2673   H         1 RES1   0.0000
  8688 H       35.6714  21.3019  21.3197   H         1 RES1   0.0000
  8691 H       41.1021  17.8366  23.2851   H         1 RES1   0.0000
  8692 H       39.1545  17.8366  21.3019   H         1 RES1   0.0000
  8693 H       41.1021  26.7504  21.3019   H         1 RES1   0.0000
  8694 H       39.1545  26.7504  23.2851   H         1 RES1   0.0000
  8707 O2      43.2226  34.0341  34.5157   O         1 RES1   0.0000
  8708 O2      43.2226  28.3877  27.9061   O         1 RES1   0.0000
  8717 O2      43.4331  28.1166  25.1167   O         1 RES1   0.0000
  8718 O2      43.4331  34.3052  19.4703   O         1 RES1   0.0000
  8719 O2      42.9515  25.5983  28.1166   O         1 RES1   0.0000
  8720 O2      37.3051  25.5983  34.3052   O         1 RES1   0.0000
  8740 O2      43.1870  25.3522  25.3522   O         1 RES1   0.0000
  8746 Zr      42.1285  35.4711  35.8815   Z         1 RES1   0.0000
  8760 O1      40.8595  37.3015  17.9775   O         1 RES1   0.0000
  8761 O1      39.3971  37.3015  26.6095   O         1 RES1   0.0000
  8762 O1      35.8123  23.0247  37.3015   O         1 RES1   0.0000
  8766 O1      41.2055  35.5394  20.0873   O         1 RES1   0.0000
  8767 O1      39.0511  35.5394  24.4997   O         1 RES1   0.0000
  8768 O1      37.9221  23.3707  35.5394   O         1 RES1   0.0000
  8769 O1      42.3345  21.2163  35.5394   O         1 RES1   0.0000
  8777 O1      36.0959  37.2854  30.4761   O         1 RES1   0.0000
  8786 O2      42.9515  36.8235  34.3052   O         1 RES1   0.0000
  8787 O2      37.3051  36.8235  28.1166   O         1 RES1   0.0000
  8802 O2      43.1870  37.0696  19.2348   O         1 RES1   0.0000
  8813 O1      39.3971  25.1203  35.8123   O         1 RES1   0.0000
  8815 O1      35.8123  21.5623  42.9551   O         1 RES1   0.0000
  8817 O1      42.9551  17.9775  39.3971   O         1 RES1   0.0000
  8818 O1      42.9551  26.6095  40.8595   O         1 RES1   0.0000
  8831 O1      39.0653  28.9744  36.1083   O         1 RES1   0.0000
  8832 O1      41.1913  33.4474  36.1083   O         1 RES1   0.0000
  8855 O1      39.0511  26.8824  37.9221   O         1 RES1   0.0000
  8856 O1      41.2055  26.8824  42.3345   O         1 RES1   0.0000
  8888 O1      42.9712  31.9457  36.0959   O         1 RES1   0.0000
  8891 C1      38.5303  30.1248  36.0976   C         1 RES1   0.0000
  8892 C1      41.7263  32.2970  36.0976   C         1 RES1   0.0000
  8915 C2      39.4898  31.3090  36.1030   C         1 RES1   0.0000
  8916 C2      40.7668  31.1128  36.1030   C         1 RES1   0.0000
  8939 H       39.1563  32.1775  36.1048   H         1 RES1   0.0000
  8940 H       41.1003  30.2443  36.1048   H         1 RES1   0.0000
  8963 C1      39.0689  23.8951  35.6696   C         1 RES1   0.0000
  8964 C1      41.1877  20.6919  35.6696   C         1 RES1   0.0000
  8967 C1      35.6696  21.2341  41.7299   C         1 RES1   0.0000
  8968 C1      35.6696  23.3529  38.5267   C         1 RES1   0.0000
  8971 C1      41.7299  17.8348  39.0689   C         1 RES1   0.0000
  8972 C1      38.5267  17.8348  41.1877   C         1 RES1   0.0000
  8973 C1      41.7299  26.7522  41.1877   C         1 RES1   0.0000
  8974 C1      38.5267  26.7522  39.0689   C         1 RES1   0.0000
  8987 C2      40.2478  22.9445  35.6714   C         1 RES1   0.0000
  8988 C2      40.0088  21.6425  35.6714   C         1 RES1   0.0000
  8991 C2      35.6714  22.4130  40.7793   C         1 RES1   0.0000
  8992 C2      35.6714  22.1740  39.4773   C         1 RES1   0.0000
  8995 C2      40.7793  17.8366  40.2478   C         1 RES1   0.0000
  8996 C2      39.4773  17.8366  40.0088   C         1 RES1   0.0000
  8997 C2      40.7793  26.7504  40.0088   C         1 RES1   0.0000
  8998 C2      39.4773  26.7504  40.2478   C         1 RES1   0.0000
  9011 H       41.1199  23.2673  35.6714   H         1 RES1   0.0000
  9012 H       39.1367  21.3197  35.6714   H         1 RES1   0.0000
  9015 H       35.6714  23.2851  41.1021   H         1 RES1   0.0000
  9016 H       35.6714  21.3019  39.1545   H         1 RES1   0.0000
  9019 H       41.1021  17.8366  41.1199   H         1 RES1   0.0000
  9020 H       39.1545  17.8366  39.1367   H         1 RES1   0.0000
  9021 H       41.1021  26.7504  39.1367   H         1 RES1   0.0000
  9022 H       39.1545  26.7504  41.1199   H         1 RES1   0.0000
  9046 O2      43.4331  28.1166  42.9515   O         1 RES1   0.0000
  9047 O2      43.4331  34.3052  37.3051   O         1 RES1   0.0000
  9070 O2      43.1870  25.3522  43.1870   O         1 RES1   0.0000
  9092 O1      40.8595  37.3015  35.8123   O         1 RES1   0.0000
  9098 O1      41.2055  35.5394  37.9221   O         1 RES1   0.0000
  9099 O1      39.0511  35.5394  42.3345   O         1 RES1   0.0000
  9140 O2      43.1870  37.0696  37.0696   O         1 RES1   0.0000
  9156 O1      40.8595  42.9551   8.7747   O         1 RES1   0.0000
  9179 O1      36.1083  39.0653  11.1396   O         1 RES1   0.0000
  9180 O1      36.1083  41.1913  15.6126   O         1 RES1   0.0000
  9201 O1      37.9221  39.0511   9.0476   O         1 RES1   0.0000
  9203 O1      42.3345  41.2055   9.0476   O         1 RES1   0.0000
  9238 O1      36.0959  42.9712  14.1109   O         1 RES1   0.0000
  9243 C1      36.0976  38.5303  12.2900   C         1 RES1   0.0000
  9244 C1      36.0976  41.7263  14.4622   C         1 RES1   0.0000
  9267 C2      36.1030  39.4898  13.4742   C         1 RES1   0.0000
  9268 C2      36.1030  40.7668  13.2780   C         1 RES1   0.0000
  9291 H       36.1048  39.1563  14.3427   H         1 RES1   0.0000
  9292 H       36.1048  41.1003  12.4095   H         1 RES1   0.0000
  9313 C1      41.1877  41.7299   8.9174   C         1 RES1   0.0000
  9314 C1      39.0689  38.5267   8.9174   C         1 RES1   0.0000
  9337 C2      40.0088  40.7793   8.9156   C         1 RES1   0.0000
  9338 C2      40.2478  39.4773   8.9156   C         1 RES1   0.0000
  9361 H       39.1367  41.1021   8.9156   H         1 RES1   0.0000
  9362 H       41.1199  39.1545   8.9156   H         1 RES1   0.0000
  9398 O2      42.9515  43.4331  10.2818   O         1 RES1   0.0000
  9399 O2      37.3051  43.4331  16.4704   O         1 RES1   0.0000
  9451 O1      35.8123  40.8595  19.4667   O         1 RES1   0.0000
  9459 O1      37.9221  41.2055  17.7046   O         1 RES1   0.0000
  9460 O1      42.3345  39.0511  17.7046   O         1 RES1   0.0000
  9522 O1      39.3971  42.9551  17.9775   O         1 RES1   0.0000
  9523 O1      40.8595  42.9551  26.6095   O         1 RES1   0.0000
  9524 O1      35.8123  39.3971  25.1203   O         1 RES1   0.0000
  9526 O1      42.9551  35.8123  21.5623   O         1 RES1   0.0000
  9544 O1      36.1083  39.0653  28.9744   O         1 RES1   0.0000
  9545 O1      36.1083  41.1913  33.4474   O         1 RES1   0.0000
  9566 O1      37.9221  39.0511  26.8824   O         1 RES1   0.0000
  9567 O1      42.3345  41.2055  26.8824   O         1 RES1   0.0000
  9599 O1      36.0959  42.9712  31.9457   O         1 RES1   0.0000
  9604 C1      36.0976  38.5303  30.1248   C         1 RES1   0.0000
  9605 C1      36.0976  41.7263  32.2970   C         1 RES1   0.0000
  9628 C2      36.1030  39.4898  31.3090   C         1 RES1   0.0000
  9629 C2      36.1030  40.7668  31.1128   C         1 RES1   0.0000
  9652 H       36.1048  39.1563  32.1775   H         1 RES1   0.0000
  9653 H       36.1048  41.1003  30.2443   H         1 RES1   0.0000
  9672 C1      39.0689  41.7299  17.8348   C         1 RES1   0.0000
  9673 C1      41.1877  38.5267  17.8348   C         1 RES1   0.0000
  9674 C1      41.1877  41.7299  26.7522   C         1 RES1   0.0000
  9675 C1      39.0689  38.5267  26.7522   C         1 RES1   0.0000
  9676 C1      35.6696  39.0689  23.8951   C         1 RES1   0.0000
  9677 C1      35.6696  41.1877  20.6919   C         1 RES1   0.0000
  9680 C1      41.7299  35.6696  21.2341   C         1 RES1   0.0000
  9681 C1      38.5267  35.6696  23.3529   C         1 RES1   0.0000
  9696 C2      40.2478  40.7793  17.8366   C         1 RES1   0.0000
  9697 C2      40.0088  39.4773  17.8366   C         1 RES1   0.0000
  9698 C2      40.0088  40.7793  26.7504   C         1 RES1   0.0000
  9699 C2      40.2478  39.4773  26.7504   C         1 RES1   0.0000
  9700 C2      35.6714  40.2478  22.9445   C         1 RES1   0.0000
  9701 C2      35.6714  40.0088  21.6425   C         1 RES1   0.0000
  9704 C2      40.7793  35.6714  22.4130   C         1 RES1   0.0000
  9705 C2      39.4773  35.6714  22.1740   C         1 RES1   0.0000
  9720 H       41.1199  41.1021  17.8366   H         1 RES1   0.0000
  9721 H       39.1367  39.1545  17.8366   H         1 RES1   0.0000
  9722 H       39.1367  41.1021  26.7504   H         1 RES1   0.0000
  9723 H       41.1199  39.1545  26.7504   H         1 RES1   0.0000
  9724 H       35.6714  41.1199  23.2673   H         1 RES1   0.0000
  9725 H       35.6714  39.1367  21.3197   H         1 RES1   0.0000
  9728 H       41.1021  35.6714  23.2851   H         1 RES1   0.0000
  9729 H       39.1545  35.6714  21.3019   H         1 RES1   0.0000
  9756 O2      42.9515  43.4331  28.1166   O         1 RES1   0.0000
  9757 O2      37.3051  43.4331  34.3052   O         1 RES1   0.0000
  9777 O2      43.1870  43.1870  25.3522   O         1 RES1   0.0000
  9800 O1      35.8123  40.8595  37.3015   O         1 RES1   0.0000
  9806 O1      37.9221  41.2055  35.5394   O         1 RES1   0.0000
  9807 O1      42.3345  39.0511  35.5394   O         1 RES1   0.0000
  9855 O1      39.3971  42.9551  35.8123   O         1 RES1   0.0000
  9857 O1      35.8123  39.3971  42.9551   O         1 RES1   0.0000
  9859 O1      42.9551  35.8123  39.3971   O         1 RES1   0.0000
 10005 C1      39.0689  41.7299  35.6696   C         1 RES1   0.0000
 10006 C1      41.1877  38.5267  35.6696   C         1 RES1   0.0000
 10009 C1      35.6696  39.0689  41.7299   C         1 RES1   0.0000
 10010 C1      35.6696  41.1877  38.5267   C         1 RES1   0.0000
 10013 C1      41.7299  35.6696  39.0689   C         1 RES1   0.0000
 10014 C1      38.5267  35.6696  41.1877   C         1 RES1   0.0000
 10029 C2      40.2478  40.7793  35.6714   C         1 RES1   0.0000
 10030 C2      40.0088  39.4773  35.6714   C         1 RES1   0.0000
 10033 C2      35.6714  40.2478  40.7793   C         1 RES1   0.0000
 10034 C2      35.6714  40.0088  39.4773   C         1 RES1   0.0000
 10037 C2      40.7793  35.6714  40.2478   C         1 RES1   0.0000
 10038 C2      39.4773  35.6714  40.0088   C         1 RES1   0.0000
 10053 H       41.1199  41.1021  35.6714   H         1 RES1   0.0000
 10054 H       39.1367  39.1545  35.6714   H         1 RES1   0.0000
 10057 H       35.6714  41.1199  41.1021   H         1 RES1   0.0000
 10058 H       35.6714  39.1367  39.1545   H         1 RES1   0.0000
 10061 H       41.1021  35.6714  41.1199   H         1 RES1   0.0000
 10062 H       39.1545  35.6714  39.1367   H         1 RES1   0.0000
 10112 O2      43.1870  43.1870  43.1870   O         1 RES1   0.0000
@<TRIPOS>BOND     1     1     7   un
     2     1    19   un
     3     1    67   un
     4     1    73   un
     5     1    76   un
     6     1    79   un
     7     1    80   un
     8     1    85   un
     9     2     4   un
    10     2     6   un
    11     2     9   un
    12     2    21   un
    13     2    69   un
    14     3    11   un
    15     3    23   un
    16     3    70   un
    17     3    71   un
    18     3    75   un
    19     3    78   un
    20     3    81   un
    21     3    83   un
    22     4     6   un
    23     4    13   un
    24     4    25   un
    25     4    69   un
    26     5    15   un
    27     5    27   un
    28     5    68   un
    29     5    72   un
    30     5    74   un
    31     5    77   un
    32     5    82   un
    33     5    84   un
    34     6    17   un
    35     6    29   un
    36     6    69   un
    37     7    31   un
    38     8    32   un
    39     8    74   un
    40     9    33   un
    41    10    34   un
    42    10    75   un
    43    11    35   un
    44    12    36   un
    45    12    76   un
    46    13    37   un
    47    14    38   un
    48    14    77   un
    49    15    39   un
    50    16    40   un
    51    16    78   un
    52    17    41   un
    53    18    42   un
    54    18    79   un
    55    19    42   un
    56    20    39   un
    57    20    74   un
    58    21    41   un
    59    22    40   un
    60    22    75   un
    61    23    34   un
    62    24    31   un
    63    24    76   un
    64    25    33   un
    65    26    32   un
    66    26    77   un
    67    27    38   un
    68    28    35   un
    69    28    78   un
    70    29    37   un
    71    30    36   un
    72    30    79   un
    73    31    43   un
    74    32    44   un
    75    33    45   un
    76    34    46   un
    77    35    47   un
    78    36    48   un
    79    37    49   un
    80    38    50   un
    81    39    51   un
    82    40    52   un
    83    41    53   un
    84    42    54   un
    85    43    44   un
    86    43    55   un
    87    44    56   un
    88    45    46   un
    89    45    57   un
    90    46    58   un
    91    47    48   un
    92    47    59   un
    93    48    60   un
    94    49    50   un
    95    49    61   un
    96    50    62   un
    97    51    52   un
    98    51    63   un
    99    52    64   un
   100    53    54   un
   101    53    65   un
   102    54    66   un
   103    67    76   un
   104    67    79   un
   105    68    74   un
   106    68    77   un
   107    70    75   un
   108    70    78   un
   109    71    78   un
   110    71    83   un
   111    71   357   un
   112    71   781   un
   113    71   801   un
   114    71   873   un
   115    71   882   un
   116    72    74   un
   117    72    84   un
   118    72   192   un
   119    72   273   un
   120    72   293   un
   121    72   367   un
   122    72   376   un
   123    73    76   un
   124    73    85   un
   125    73   106   un
   126    73   126   un
   127    73   189   un
   128    73   201   un
   129    73   211   un
   130    74    77   un
   131    74    84   un
   132    74   182   un
   133    74   192   un
   134    74   275   un
   135    74   369   un
   136    74   376   un
   137    75    78   un
   138    75   277   un
   139    75   349   un
   140    75   357   un
   141    76    79   un
   142    76    85   un
   143    76   108   un
   144    76   189   un
   145    76   204   un
   146    76   206   un
   147    76   211   un
   148    77   110   un
   149    77   182   un
   150    77   192   un
   151    78    83   un
   152    78   349   un
   153    78   357   un
   154    78   783   un
   155    78   877   un
   156    78   882   un
   157    79   189   un
   158    79   206   un
   159    79   785   un
   160    80   129   un
   161    81   804   un
   162    82   296   un
   163    86    88   un
   164    86    90   un
   165    86   105   un
   166    86   125   un
   167    86   184   un
   168    87    93   un
   169    87   111   un
   170    87   185   un
   171    87   194   un
   172    87   197   un
   173    87   200   un
   174    87   202   un
   175    87   209   un
   176    88    90   un
   177    88    92   un
   178    88    95   un
   179    88   113   un
   180    88   127   un
   181    88   184   un
   182    88   187   un
   183    89    97   un
   184    89   107   un
   185    89   115   un
   186    89   183   un
   187    89   188   un
   188    89   190   un
   189    89   193   un
   190    89   196   un
   191    89   199   un
   192    89   203   un
   193    89   207   un
   194    89   210   un
   195    90    92   un
   196    90    99   un
   197    90   109   un
   198    90   117   un
   199    90   184   un
   200    90   187   un
   201    91   101   un
   202    91   119   un
   203    91   186   un
   204    91   191   un
   205    91   195   un
   206    91   198   un
   207    91   205   un
   208    91   208   un
   209    92   103   un
   210    92   121   un
   211    92   187   un
   212    93   146   un
   213    94   147   un
   214    94   195   un
   215    95   148   un
   216    96   149   un
   217    96   196   un
   218    97   150   un
   219    98   151   un
   220    98   197   un
   221    99   152   un
   222   100   153   un
   223   100   198   un
   224   101   154   un
   225   102   155   un
   226   102   199   un
   227   103   156   un
   228   104   157   un
   229   104   200   un
   230   105   128   un
   231   106   129   un
   232   107   130   un
   233   108   131   un
   234   109   132   un
   235   110   133   un
   236   111   157   un
   237   112   154   un
   238   112   195   un
   239   113   156   un
   240   114   155   un
   241   114   196   un
   242   115   149   un
   243   116   146   un
   244   116   197   un
   245   117   148   un
   246   118   147   un
   247   118   198   un
   248   119   153   un
   249   120   150   un
   250   120   199   un
   251   121   152   un
   252   122   151   un
   253   122   200   un
   254   123   133   un
   255   123   192   un
   256   124   130   un
   257   124   193   un
   258   125   132   un
   259   126   131   un
   260   127   128   un
   261   128   134   un
   262   129   135   un
   263   130   136   un
   264   131   137   un
   265   132   138   un
   266   133   139   un
   267   134   135   un
   268   134   140   un
   269   135   141   un
   270   136   137   un
   271   136   142   un
   272   137   143   un
   273   138   139   un
   274   138   144   un
   275   139   145   un
   276   146   158   un
   277   147   159   un
   278   148   160   un
   279   149   161   un
   280   150   162   un
   281   151   163   un
   282   152   164   un
   283   153   165   un
   284   154   166   un
   285   155   167   un
   286   156   168   un
   287   157   169   un
   288   158   159   un
   289   158   170   un
   290   159   171   un
   291   160   161   un
   292   160   172   un
   293   161   173   un
   294   162   163   un
   295   162   174   un
   296   163   175   un
   297   164   165   un
   298   164   176   un
   299   165   177   un
   300   166   167   un
   301   166   178   un
   302   167   179   un
   303   168   169   un
   304   168   180   un
   305   169   181   un
   306   182   192   un
   307   183   193   un
   308   183   196   un
   309   185   197   un
   310   185   200   un
   311   186   195   un
   312   186   198   un
   313   188   196   un
   314   188   199   un
   315   189   206   un
   316   189   211   un
   317   189   798   un
   318   189   904   un
   319   189   918   un
   320   190   193   un
   321   190   199   un
   322   190   207   un
   323   190   210   un
   324   190   535   un
   325   190   566   un
   326   190   907   un
   327   190   935   un
   328   190  1052   un
   329   190  1055   un
   330   190  1068   un
   331   191   195   un
   332   191   208   un
   333   191   246   un
   334   191   399   un
   335   191   429   un
   336   191   547   un
   337   191   562   un
   338   192   376   un
   339   192   400   un
   340   192   412   un
   341   193   196   un
   342   193   210   un
   343   193   401   un
   344   193   528   un
   345   193   535   un
   346   193   548   un
   347   193   550   un
   348   193   566   un
   349   194   197   un
   350   194   209   un
   351   194   214   un
   352   194   222   un
   353   194   245   un
   354   194   248   un
   355   194   252   un
   356   195   198   un
   357   195   208   un
   358   195   242   un
   359   195   246   un
   360   195   405   un
   361   195   553   un
   362   195   562   un
   363   196   199   un
   364   196   407   un
   365   196   435   un
   366   196   521   un
   367   196   528   un
   368   196   535   un
   369   197   200   un
   370   197   209   un
   371   197   216   un
   372   197   245   un
   373   197   249   un
   374   197   250   un
   375   197   252   un
   376   198   218   un
   377   198   242   un
   378   198   246   un
   379   199   207   un
   380   199   521   un
   381   199   535   un
   382   199   915   un
   383   199  1060   un
   384   199  1068   un
   385   200   245   un
   386   200   250   un
   387   200   917   un
   388   201   986   un
   389   202   225   un
   390   203   946   un
   391   204   943   un
   392   205   438   un
   393   212   213   un
   394   212   221   un
   395   212   244   un
   396   213   224   un
   397   214   225   un
   398   215   226   un
   399   216   227   un
   400   217   228   un
   401   218   229   un
   402   219   229   un
   403   219   246   un
   404   220   226   un
   405   220   247   un
   406   221   228   un
   407   222   227   un
   408   223   224   un
   409   224   230   un
   410   225   231   un
   411   226   232   un
   412   227   233   un
   413   228   234   un
   414   229   235   un
   415   230   231   un
   416   230   236   un
   417   231   237   un
   418   232   233   un
   419   232   238   un
   420   233   239   un
   421   234   235   un
   422   234   240   un
   423   235   241   un
   424   242   246   un
   425   243   247   un
   426   245   250   un
   427   245   252   un
   428   245   932   un
   429   245  1072   un
   430   245  1080   un
   431   246   562   un
   432   246   569   un
   433   246   577   un
   434   247   251   un
   435   247   570   un
   436   247   619   un
   437   247   623   un
   438   247   625   un
   439   247   632   un
   440   248  1113   un
   441   249  1088   un
   442   253   255   un
   443   253   259   un
   444   253   272   un
   445   253   292   un
   446   253   351   un
   447   254   260   un
   448   254   274   un
   449   254   278   un
   450   254   350   un
   451   254   352   un
   452   254   358   un
   453   254   360   un
   454   254   363   un
   455   254   366   un
   456   254   368   un
   457   254   374   un
   458   254   375   un
   459   255   257   un
   460   255   259   un
   461   255   262   un
   462   255   276   un
   463   255   280   un
   464   255   351   un
   465   255   354   un
   466   256   264   un
   467   256   282   un
   468   256   355   un
   469   256   356   un
   470   256   362   un
   471   256   365   un
   472   256   370   un
   473   256   372   un
   474   257   259   un
   475   257   266   un
   476   257   284   un
   477   257   354   un
   478   258   268   un
   479   258   286   un
   480   258   353   un
   481   258   359   un
   482   258   361   un
   483   258   364   un
   484   258   371   un
   485   258   373   un
   486   259   270   un
   487   259   288   un
   488   259   294   un
   489   259   351   un
   490   259   354   un
   491   260   313   un
   492   261   314   un
   493   261   361   un
   494   262   315   un
   495   263   316   un
   496   263   362   un
   497   264   317   un
   498   265   318   un
   499   265   363   un
   500   266   319   un
   501   267   320   un
   502   267   364   un
   503   268   321   un
   504   269   322   un
   505   269   365   un
   506   270   323   un
   507   271   324   un
   508   271   366   un
   509   272   295   un
   510   273   296   un
   511   274   297   un
   512   275   298   un
   513   276   299   un
   514   277   300   un
   515   278   324   un
   516   279   321   un
   517   279   361   un
   518   280   323   un
   519   281   322   un
   520   281   362   un
   521   282   316   un
   522   283   313   un
   523   283   363   un
   524   284   315   un
   525   285   314   un
   526   285   364   un
   527   286   320   un
   528   287   317   un
   529   287   365   un
   530   288   319   un
   531   289   318   un
   532   289   366   un
   533   290   300   un
   534   290   357   un
   535   291   297   un
   536   291   358   un
   537   292   299   un
   538   293   298   un
   539   294   295   un
   540   295   301   un
   541   296   302   un
   542   297   303   un
   543   298   304   un
   544   299   305   un
   545   300   306   un
   546   301   302   un
   547   301   307   un
   548   302   308   un
   549   303   304   un
   550   303   309   un
   551   304   310   un
   552   305   306   un
   553   305   311   un
   554   306   312   un
   555   313   325   un
   556   314   326   un
   557   315   327   un
   558   316   328   un
   559   317   329   un
   560   318   330   un
   561   319   331   un
   562   320   332   un
   563   321   333   un
   564   322   334   un
   565   323   335   un
   566   324   336   un
   567   325   326   un
   568   325   337   un
   569   326   338   un
   570   327   328   un
   571   327   339   un
   572   328   340   un
   573   329   330   un
   574   329   341   un
   575   330   342   un
   576   331   332   un
   577   331   343   un
   578   332   344   un
   579   333   334   un
   580   333   345   un
   581   334   346   un
   582   335   336   un
   583   335   347   un
   584   336   348   un
   585   349   357   un
   586   350   358   un
   587   350   366   un
   588   352   363   un
   589   352   366   un
   590   353   361   un
   591   353   364   un
   592   355   362   un
   593   355   365   un
   594   356   365   un
   595   356   372   un
   596   356   666   un
   597   356  1157   un
   598   356  1187   un
   599   356  1302   un
   600   356  1318   un
   601   357   882   un
   602   357  1158   un
   603   357  1170   un
   604   358   360   un
   605   358   366   un
   606   358   375   un
   607   358   533   un
   608   358   565   un
   609   358  1159   un
   610   358  1285   un
   611   358  1303   un
   612   358  1305   un
   613   359   361   un
   614   359   373   un
   615   359   538   un
   616   359   635   un
   617   359   643   un
   618   359   668   un
   619   359   671   un
   620   360   363   un
   621   360   374   un
   622   360   375   un
   623   360   403   un
   624   360   433   un
   625   360   533   un
   626   360   549   un
   627   360   551   un
   628   360   564   un
   629   360   565   un
   630   361   364   un
   631   361   373   un
   632   361   524   un
   633   361   538   un
   634   361   637   un
   635   361   669   un
   636   361   671   un
   637   362   365   un
   638   362   639   un
   639   362   663   un
   640   362   666   un
   641   363   366   un
   642   363   374   un
   643   363   409   un
   644   363   533   un
   645   363   555   un
   646   363   557   un
   647   363   564   un
   648   364   411   un
   649   364   524   un
   650   364   538   un
   651   365   372   un
   652   365   663   un
   653   365   666   un
   654   365  1167   un
   655   365  1311   un
   656   365  1318   un
   657   366   533   un
   658   366   557   un
   659   366  1169   un
   660   366  1194   un
   661   366  1285   un
   662   367   480   un
   663   368   442   un
   664   369   439   un
   665   370  1196   un
   666   371   646   un
   667   377   378   un
   668   377   380   un
   669   377   384   un
   670   377   385   un
   671   377   398   un
   672   377   428   un
   673   377   523   un
   674   377   527   un
   675   378   380   un
   676   378   382   un
   677   378   402   un
   678   378   413   un
   679   378   432   un
   680   378   526   un
   681   378   527   un
   682   379   386   un
   683   379   404   un
   684   379   414   un
   685   379   522   un
   686   379   529   un
   687   379   536   un
   688   379   540   un
   689   379   543   un
   690   379   546   un
   691   379   552   un
   692   379   560   un
   693   379   561   un
   694   380   382   un
   695   380   384   un
   696   380   388   un
   697   380   406   un
   698   380   416   un
   699   380   434   un
   700   380   523   un
   701   380   526   un
   702   380   527   un
   703   380   531   un
   704   381   390   un
   705   381   408   un
   706   381   418   un
   707   381   525   un
   708   381   532   un
   709   381   534   un
   710   381   539   un
   711   381   542   un
   712   381   545   un
   713   381   554   un
   714   381   558   un
   715   381   563   un
   716   382   384   un
   717   382   392   un
   718   382   410   un
   719   382   420   un
   720   382   526   un
   721   382   531   un
   722   383   394   un
   723   383   422   un
   724   383   530   un
   725   383   537   un
   726   383   541   un
   727   383   544   un
   728   383   556   un
   729   383   559   un
   730   384   396   un
   731   384   424   un
   732   384   436   un
   733   384   523   un
   734   384   531   un
   735   385   479   un
   736   386   481   un
   737   387   482   un
   738   387   541   un
   739   388   483   un
   740   389   484   un
   741   389   542   un
   742   390   485   un
   743   391   486   un
   744   391   543   un
   745   392   487   un
   746   393   488   un
   747   393   544   un
   748   394   489   un
   749   395   490   un
   750   395   545   un
   751   396   491   un
   752   397   492   un
   753   397   546   un
   754   398   437   un
   755   399   438   un
   756   400   439   un
   757   401   440   un
   758   402   441   un
   759   403   442   un
   760   404   443   un
   761   405   444   un
   762   406   445   un
   763   407   446   un
   764   408   447   un
   765   409   448   un
   766   410   449   un
   767   411   450   un
   768   412   480   un
   769   413   479   un
   770   414   492   un
   771   415   489   un
   772   415   541   un
   773   416   491   un
   774   417   490   un
   775   417   542   un
   776   418   484   un
   777   419   481   un
   778   419   543   un
   779   420   483   un
   780   421   482   un
   781   421   544   un
   782   422   488   un
   783   423   485   un
   784   423   545   un
   785   424   487   un
   786   425   486   un
   787   425   546   un
   788   426   446   un
   789   426   535   un
   790   427   443   un
   791   427   536   un
   792   428   445   un
   793   429   444   un
   794   430   450   un
   795   430   538   un
   796   431   447   un
   797   431   539   un
   798   432   449   un
   799   433   448   un
   800   434   441   un
   801   435   440   un
   802   436   437   un
   803   437   451   un
   804   438   452   un
   805   439   453   un
   806   440   454   un
   807   441   455   un
   808   442   456   un
   809   443   457   un
   810   444   458   un
   811   445   459   un
   812   446   460   un
   813   447   461   un
   814   448   462   un
   815   449   463   un
   816   450   464   un
   817   451   452   un
   818   451   465   un
   819   452   466   un
   820   453   454   un
   821   453   467   un
   822   454   468   un
   823   455   456   un
   824   455   469   un
   825   456   470   un
   826   457   458   un
   827   457   471   un
   828   458   472   un
   829   459   460   un
   830   459   473   un
   831   460   474   un
   832   461   462   un
   833   461   475   un
   834   462   476   un
   835   463   464   un
   836   463   477   un
   837   464   478   un
   838   479   493   un
   839   480   494   un
   840   481   495   un
   841   482   496   un
   842   483   497   un
   843   484   498   un
   844   485   499   un
   845   486   500   un
   846   487   501   un
   847   488   502   un
   848   489   503   un
   849   490   504   un
   850   491   505   un
   851   492   506   un
   852   493   494   un
   853   493   507   un
   854   494   508   un
   855   495   496   un
   856   495   509   un
   857   496   510   un
   858   497   498   un
   859   497   511   un
   860   498   512   un
   861   499   500   un
   862   499   513   un
   863   500   514   un
   864   501   502   un
   865   501   515   un
   866   502   516   un
   867   503   504   un
   868   503   517   un
   869   504   518   un
   870   505   506   un
   871   505   519   un
   872   506   520   un
   873   521   535   un
   874   522   536   un
   875   522   546   un
   876   524   538   un
   877   525   539   un
   878   525   542   un
   879   528   535   un
   880   529   543   un
   881   529   546   un
   882   530   541   un
   883   530   544   un
   884   532   542   un
   885   532   545   un
   886   533   557   un
   887   533   564   un
   888   533   565   un
   889   533  1184   un
   890   533  1285   un
   891   533  1328   un
   892   533  1346   un
   893   533  1370   un
   894   534   539   un
   895   534   545   un
   896   534   558   un
   897   534   563   un
   898   534   725   un
   899   534   735   un
   900   534  1349   un
   901   534  1391   un
   902   534  1585   un
   903   534  1591   un
   904   534  1611   un
   905   535   566   un
   906   535  1068   un
   907   535  1330   un
   908   535  1350   un
   909   535  1372   un
   910   536   540   un
   911   536   546   un
   912   536   561   un
   913   536   620   un
   914   536   631   un
   915   536  1351   un
   916   536  1563   un
   917   536  1586   un
   918   536  1592   un
   919   537   541   un
   920   537   559   un
   921   537   621   un
   922   537   675   un
   923   537   687   un
   924   537   727   un
   925   537   733   un
   926   538   671   un
   927   538   676   un
   928   538   682   un
   929   539   542   un
   930   539   563   un
   931   539   677   un
   932   539   724   un
   933   539   725   un
   934   539   728   un
   935   539   729   un
   936   539   735   un
   937   540   543   un
   938   540   560   un
   939   540   561   un
   940   540   572   un
   941   540   582   un
   942   540   620   un
   943   540   624   un
   944   540   626   un
   945   540   630   un
   946   540   631   un
   947   541   544   un
   948   541   559   un
   949   541   615   un
   950   541   621   un
   951   541   679   un
   952   541   731   un
   953   541   733   un
   954   542   545   un
   955   542   681   un
   956   542   688   un
   957   542   720   un
   958   542   724   un
   959   542   725   un
   960   543   546   un
   961   543   560   un
   962   543   574   un
   963   543   620   un
   964   543   627   un
   965   543   628   un
   966   543   630   un
   967   544   576   un
   968   544   615   un
   969   544   621   un
   970   545   558   un
   971   545   720   un
   972   545   725   un
   973   545  1367   un
   974   545  1601   un
   975   545  1611   un
   976   546   620   un
   977   546   628   un
   978   546  1369   un
   979   546  1405   un
   980   546  1563   un
   981   547   610   un
   982   548  1487   un
   983   549  1489   un
   984   550  1482   un
   985   551  1483   un
   986   552   588   un
   987   553   585   un
   988   554  1409   un
   989   555  1406   un
   990   556   691   un
   991   567   571   un
   992   567   578   un
   993   567   581   un
   994   567   617   un
   995   567   618   un
   996   568   609   un
   997   569   585   un
   998   570   586   un
   999   571   587   un
  1000   572   588   un
  1001   573   589   un
  1002   574   590   un
  1003   575   591   un
  1004   576   592   un
  1005   577   610   un
  1006   578   609   un
  1007   579   592   un
  1008   579   621   un
  1009   580   589   un
  1010   580   622   un
  1011   581   591   un
  1012   582   590   un
  1013   583   587   un
  1014   584   586   un
  1015   585   593   un
  1016   586   594   un
  1017   587   595   un
  1018   588   596   un
  1019   589   597   un
  1020   590   598   un
  1021   591   599   un
  1022   592   600   un
  1023   593   594   un
  1024   593   601   un
  1025   594   602   un
  1026   595   596   un
  1027   595   603   un
  1028   596   604   un
  1029   597   598   un
  1030   597   605   un
  1031   598   606   un
  1032   599   600   un
  1033   599   607   un
  1034   600   608   un
  1035   609   611   un
  1036   610   612   un
  1037   611   612   un
  1038   611   613   un
  1039   612   614   un
  1040   615   621   un
  1041   616   622   un
  1042   620   628   un
  1043   620   630   un
  1044   620   631   un
  1045   620  1388   un
  1046   620  1563   un
  1047   620  1616   un
  1048   620  1621   un
  1049   620  1631   un
  1050   621   733   un
  1051   621   737   un
  1052   621   739   un
  1053   622   629   un
  1054   622   738   un
  1055   622   755   un
  1056   622   756   un
  1057   622   757   un
  1058   622   760   un
  1059   623  1679   un
  1060   624  1681   un
  1061   625  1674   un
  1062   626  1675   un
  1063   627  1642   un
  1064   633   634   un
  1065   633   642   un
  1066   633   665   un
  1067   634   645   un
  1068   635   646   un
  1069   636   647   un
  1070   637   648   un
  1071   638   649   un
  1072   639   650   un
  1073   640   650   un
  1074   640   666   un
  1075   641   647   un
  1076   641   667   un
  1077   642   649   un
  1078   643   648   un
  1079   644   645   un
  1080   645   651   un
  1081   646   652   un
  1082   647   653   un
  1083   648   654   un
  1084   649   655   un
  1085   650   656   un
  1086   651   652   un
  1087   651   657   un
  1088   652   658   un
  1089   653   654   un
  1090   653   659   un
  1091   654   660   un
  1092   655   656   un
  1093   655   661   un
  1094   656   662   un
  1095   663   666   un
  1096   664   667   un
  1097   666  1318   un
  1098   666  1729   un
  1099   666  1737   un
  1100   667   670   un
  1101   667   734   un
  1102   667  1730   un
  1103   667  1779   un
  1104   667  1782   un
  1105   667  1784   un
  1106   668   715   un
  1107   669   692   un
  1108   672   673   un
  1109   672   674   un
  1110   672   686   un
  1111   672   722   un
  1112   672   723   un
  1113   673   714   un
  1114   674   690   un
  1115   675   691   un
  1116   676   692   un
  1117   677   693   un
  1118   678   694   un
  1119   679   695   un
  1120   680   696   un
  1121   681   697   un
  1122   682   715   un
  1123   683   714   un
  1124   684   697   un
  1125   684   725   un
  1126   685   694   un
  1127   685   726   un
  1128   686   696   un
  1129   687   695   un
  1130   688   693   un
  1131   689   690   un
  1132   690   698   un
  1133   691   699   un
  1134   692   700   un
  1135   693   701   un
  1136   694   702   un
  1137   695   703   un
  1138   696   704   un
  1139   697   705   un
  1140   698   699   un
  1141   698   706   un
  1142   699   707   un
  1143   700   701   un
  1144   700   708   un
  1145   701   709   un
  1146   702   703   un
  1147   702   710   un
  1148   703   711   un
  1149   704   705   un
  1150   704   712   un
  1151   705   713   un
  1152   714   716   un
  1153   715   717   un
  1154   716   717   un
  1155   716   718   un
  1156   717   719   un
  1157   720   725   un
  1158   721   726   un
  1159   724   725   un
  1160   725   735   un
  1161   725  1611   un
  1162   725  1792   un
  1163   725  1795   un
  1164   725  1805   un
  1165   726   732   un
  1166   726   759   un
  1167   726  1796   un
  1168   726  1882   un
  1169   726  1886   un
  1170   726  1889   un
  1171   727   749   un
  1172   728  1855   un
  1173   729  1850   un
  1174   730  1851   un
  1175   731   742   un
  1176   736   748   un
  1177   737   742   un
  1178   738   743   un
  1179   739   749   un
  1180   740   748   un
  1181   741   743   un
  1182   742   744   un
  1183   743   745   un
  1184   744   745   un
  1185   744   746   un
  1186   745   747   un
  1187   748   750   un
  1188   749   751   un
  1189   750   751   un
  1190   750   752   un
  1191   751   753   un
  1192   756  1920   un
  1193   757  1915   un
  1194   758  1916   un
  1195   761   765   un
  1196   761   767   un
  1197   761   780   un
  1198   761   800   un
  1199   761   858   un
  1200   762   768   un
  1201   762   786   un
  1202   762   859   un
  1203   762   866   un
  1204   762   869   un
  1205   762   872   un
  1206   762   874   un
  1207   762   880   un
  1208   763   765   un
  1209   763   767   un
  1210   763   770   un
  1211   763   788   un
  1212   763   861   un
  1213   764   772   un
  1214   764   790   un
  1215   764   862   un
  1216   764   864   un
  1217   764   868   un
  1218   764   871   un
  1219   764   875   un
  1220   764   878   un
  1221   765   767   un
  1222   765   774   un
  1223   765   792   un
  1224   765   802   un
  1225   765   858   un
  1226   765   861   un
  1227   766   776   un
  1228   766   782   un
  1229   766   794   un
  1230   766   857   un
  1231   766   860   un
  1232   766   863   un
  1233   766   865   un
  1234   766   867   un
  1235   766   870   un
  1236   766   876   un
  1237   766   879   un
  1238   766   881   un
  1239   767   778   un
  1240   767   784   un
  1241   767   796   un
  1242   767   858   un
  1243   767   861   un
  1244   768   821   un
  1245   769   822   un
  1246   769   867   un
  1247   770   823   un
  1248   771   824   un
  1249   771   868   un
  1250   772   825   un
  1251   773   826   un
  1252   773   869   un
  1253   774   827   un
  1254   775   828   un
  1255   775   870   un
  1256   776   829   un
  1257   777   830   un
  1258   777   871   un
  1259   778   831   un
  1260   779   832   un
  1261   779   872   un
  1262   780   803   un
  1263   781   804   un
  1264   782   805   un
  1265   783   806   un
  1266   784   807   un
  1267   785   808   un
  1268   786   832   un
  1269   787   829   un
  1270   787   867   un
  1271   788   831   un
  1272   789   830   un
  1273   789   868   un
  1274   790   824   un
  1275   791   821   un
  1276   791   869   un
  1277   792   823   un
  1278   793   822   un
  1279   793   870   un
  1280   794   828   un
  1281   795   825   un
  1282   795   871   un
  1283   796   827   un
  1284   797   826   un
  1285   797   872   un
  1286   798   808   un
  1287   799   805   un
  1288   799   863   un
  1289   800   807   un
  1290   801   806   un
  1291   802   803   un
  1292   803   809   un
  1293   804   810   un
  1294   805   811   un
  1295   806   812   un
  1296   807   813   un
  1297   808   814   un
  1298   809   810   un
  1299   809   815   un
  1300   810   816   un
  1301   811   812   un
  1302   811   817   un
  1303   812   818   un
  1304   813   814   un
  1305   813   819   un
  1306   814   820   un
  1307   821   833   un
  1308   822   834   un
  1309   823   835   un
  1310   824   836   un
  1311   825   837   un
  1312   826   838   un
  1313   827   839   un
  1314   828   840   un
  1315   829   841   un
  1316   830   842   un
  1317   831   843   un
  1318   832   844   un
  1319   833   834   un
  1320   833   845   un
  1321   834   846   un
  1322   835   836   un
  1323   835   847   un
  1324   836   848   un
  1325   837   838   un
  1326   837   849   un
  1327   838   850   un
  1328   839   840   un
  1329   839   851   un
  1330   840   852   un
  1331   841   842   un
  1332   841   853   un
  1333   842   854   un
  1334   843   844   un
  1335   843   855   un
  1336   844   856   un
  1337   857   863   un
  1338   857   870   un
  1339   859   869   un
  1340   859   872   un
  1341   860   867   un
  1342   860   870   un
  1343   862   868   un
  1344   862   871   un
  1345   863   865   un
  1346   863   870   un
  1347   863   881   un
  1348   863   905   un
  1349   863  1033   un
  1350   863  1042   un
  1351   863  1051   un
  1352   863  1054   un
  1353   863  1069   un
  1354   864   871   un
  1355   864   878   un
  1356   864  1292   un
  1357   864  1947   un
  1358   864  1955   un
  1359   864  1978   un
  1360   864  1981   un
  1361   865   867   un
  1362   865   879   un
  1363   865   881   un
  1364   865  1042   un
  1365   865  1069   un
  1366   865  1161   un
  1367   865  1191   un
  1368   865  1304   un
  1369   865  1306   un
  1370   865  1316   un
  1371   866   869   un
  1372   866   880   un
  1373   866   909   un
  1374   866   939   un
  1375   866  1038   un
  1376   866  1053   un
  1377   866  1066   un
  1378   867   870   un
  1379   867   879   un
  1380   867  1029   un
  1381   867  1042   un
  1382   867  1163   un
  1383   867  1308   un
  1384   867  1316   un
  1385   868   871   un
  1386   868  1165   un
  1387   868  1281   un
  1388   868  1292   un
  1389   869   872   un
  1390   869   880   un
  1391   869   911   un
  1392   869  1038   un
  1393   869  1058   un
  1394   869  1061   un
  1395   869  1066   un
  1396   870   913   un
  1397   870   942   un
  1398   870  1029   un
  1399   870  1033   un
  1400   870  1042   un
  1401   871   878   un
  1402   871  1281   un
  1403   871  1292   un
  1404   871  1949   un
  1405   871  1979   un
  1406   871  1981   un
  1407   872  1038   un
  1408   872  1061   un
  1409   872  1951   un
  1410   873  1238   un
  1411   874   948   un
  1412   875  1958   un
  1413   876  1200   un
  1414   877  1197   un
  1415   883   884   un
  1416   883   888   un
  1417   883   890   un
  1418   883   906   un
  1419   883   919   un
  1420   883   934   un
  1421   883  1028   un
  1422   883  1032   un
  1423   884   886   un
  1424   884   888   un
  1425   884   891   un
  1426   884   908   un
  1427   884   938   un
  1428   884  1031   un
  1429   884  1032   un
  1430   885   892   un
  1431   885   920   un
  1432   885  1034   un
  1433   885  1044   un
  1434   885  1047   un
  1435   885  1050   un
  1436   885  1056   un
  1437   885  1064   un
  1438   886   888   un
  1439   886   890   un
  1440   886   894   un
  1441   886   922   un
  1442   886   940   un
  1443   886  1031   un
  1444   886  1036   un
  1445   887   896   un
  1446   887   910   un
  1447   887   924   un
  1448   887  1030   un
  1449   887  1037   un
  1450   887  1040   un
  1451   887  1043   un
  1452   887  1046   un
  1453   887  1049   un
  1454   887  1057   un
  1455   887  1062   un
  1456   887  1065   un
  1457   888   890   un
  1458   888   898   un
  1459   888   912   un
  1460   888   926   un
  1461   888   941   un
  1462   888  1028   un
  1463   888  1031   un
  1464   888  1032   un
  1465   888  1036   un
  1466   889   900   un
  1467   889   914   un
  1468   889   928   un
  1469   889  1027   un
  1470   889  1035   un
  1471   889  1039   un
  1472   889  1041   un
  1473   889  1045   un
  1474   889  1048   un
  1475   889  1059   un
  1476   889  1063   un
  1477   889  1067   un
  1478   890   902   un
  1479   890   916   un
  1480   890   930   un
  1481   890  1028   un
  1482   890  1036   un
  1483   891   985   un
  1484   892   987   un
  1485   893   988   un
  1486   893  1045   un
  1487   894   989   un
  1488   895   990   un
  1489   895  1046   un
  1490   896   991   un
  1491   897   992   un
  1492   897  1047   un
  1493   898   993   un
  1494   899   994   un
  1495   899  1048   un
  1496   900   995   un
  1497   901   996   un
  1498   901  1049   un
  1499   902   997   un
  1500   903   998   un
  1501   903  1050   un
  1502   904   943   un
  1503   905   944   un
  1504   906   945   un
  1505   907   946   un
  1506   908   947   un
  1507   909   948   un
  1508   910   949   un
  1509   911   950   un
  1510   912   951   un
  1511   913   952   un
  1512   914   953   un
  1513   915   954   un
  1514   916   955   un
  1515   917   956   un
  1516   918   986   un
  1517   919   985   un
  1518   920   998   un
  1519   921   995   un
  1520   921  1045   un
  1521   922   997   un
  1522   923   996   un
  1523   923  1046   un
  1524   924   990   un
  1525   925   987   un
  1526   925  1047   un
  1527   926   989   un
  1528   927   988   un
  1529   927  1048   un
  1530   928   994   un
  1531   929   991   un
  1532   929  1049   un
  1533   930   993   un
  1534   931   992   un
  1535   931  1050   un
  1536   932   956   un
  1537   933   953   un
  1538   933  1039   un
  1539   934   955   un
  1540   935   954   un
  1541   936   952   un
  1542   936  1042   un
  1543   937   949   un
  1544   937  1043   un
  1545   938   951   un
  1546   939   950   un
  1547   940   947   un
  1548   941   945   un
  1549   942   944   un
  1550   943   957   un
  1551   944   958   un
  1552   945   959   un
  1553   946   960   un
  1554   947   961   un
  1555   948   962   un
  1556   949   963   un
  1557   950   964   un
  1558   951   965   un
  1559   952   966   un
  1560   953   967   un
  1561   954   968   un
  1562   955   969   un
  1563   956   970   un
  1564   957   958   un
  1565   957   971   un
  1566   958   972   un
  1567   959   960   un
  1568   959   973   un
  1569   960   974   un
  1570   961   962   un
  1571   961   975   un
  1572   962   976   un
  1573   963   964   un
  1574   963   977   un
  1575   964   978   un
  1576   965   966   un
  1577   965   979   un
  1578   966   980   un
  1579   967   968   un
  1580   967   981   un
  1581   968   982   un
  1582   969   970   un
  1583   969   983   un
  1584   970   984   un
  1585   985   999   un
  1586   986  1000   un
  1587   987  1001   un
  1588   988  1002   un
  1589   989  1003   un
  1590   990  1004   un
  1591   991  1005   un
  1592   992  1006   un
  1593   993  1007   un
  1594   994  1008   un
  1595   995  1009   un
  1596   996  1010   un
  1597   997  1011   un
  1598   998  1012   un
  1599   999  1000   un
  1600   999  1013   un
  1601  1000  1014   un
  1602  1001  1002   un
  1603  1001  1015   un
  1604  1002  1016   un
  1605  1003  1004   un
  1606  1003  1017   un
  1607  1004  1018   un
  1608  1005  1006   un
  1609  1005  1019   un
  1610  1006  1020   un
  1611  1007  1008   un
  1612  1007  1021   un
  1613  1008  1022   un
  1614  1009  1010   un
  1615  1009  1023   un
  1616  1010  1024   un
  1617  1011  1012   un
  1618  1011  1025   un
  1619  1012  1026   un
  1620  1027  1039   un
  1621  1027  1048   un
  1622  1029  1042   un
  1623  1030  1043   un
  1624  1030  1046   un
  1625  1033  1042   un
  1626  1034  1047   un
  1627  1034  1050   un
  1628  1035  1045   un
  1629  1035  1048   un
  1630  1037  1046   un
  1631  1037  1049   un
  1632  1038  1061   un
  1633  1038  1066   un
  1634  1038  1952   un
  1635  1038  1984   un
  1636  1038  1992   un
  1637  1039  1041   un
  1638  1039  1048   un
  1639  1039  1067   un
  1640  1039  1073   un
  1641  1039  1122   un
  1642  1039  1124   un
  1643  1039  1126   un
  1644  1039  1128   un
  1645  1039  1134   un
  1646  1040  1043   un
  1647  1040  1049   un
  1648  1040  1062   un
  1649  1040  1065   un
  1650  1040  1572   un
  1651  1040  1614   un
  1652  1040  1987   un
  1653  1040  1997   un
  1654  1040  2036   un
  1655  1040  2038   un
  1656  1040  2041   un
  1657  1041  1045   un
  1658  1041  1063   un
  1659  1041  1067   un
  1660  1041  1124   un
  1661  1041  1134   un
  1662  1041  1353   un
  1663  1041  1395   un
  1664  1041  1587   un
  1665  1041  1593   un
  1666  1041  1607   un
  1667  1042  1069   un
  1668  1042  1316   un
  1669  1042  1332   un
  1670  1042  1354   un
  1671  1042  1374   un
  1672  1043  1046   un
  1673  1043  1065   un
  1674  1043  1355   un
  1675  1043  1559   un
  1676  1043  1572   un
  1677  1043  1588   un
  1678  1043  1594   un
  1679  1043  1614   un
  1680  1044  1047   un
  1681  1044  1064   un
  1682  1044  1075   un
  1683  1044  1085   un
  1684  1044  1123   un
  1685  1044  1127   un
  1686  1044  1133   un
  1687  1045  1048   un
  1688  1045  1063   un
  1689  1045  1118   un
  1690  1045  1124   un
  1691  1045  1359   un
  1692  1045  1597   un
  1693  1045  1607   un
  1694  1046  1049   un
  1695  1046  1361   un
  1696  1046  1401   un
  1697  1046  1552   un
  1698  1046  1559   un
  1699  1046  1572   un
  1700  1047  1050   un
  1701  1047  1064   un
  1702  1047  1077   un
  1703  1047  1123   un
  1704  1047  1130   un
  1705  1047  1131   un
  1706  1047  1133   un
  1707  1048  1079   un
  1708  1048  1087   un
  1709  1048  1118   un
  1710  1048  1122   un
  1711  1048  1124   un
  1712  1049  1062   un
  1713  1049  1552   un
  1714  1049  1572   un
  1715  1049  1989   un
  1716  1049  2039   un
  1717  1049  2041   un
  1718  1050  1123   un
  1719  1050  1131   un
  1720  1050  1991   un
  1721  1051  1479   un
  1722  1052  1481   un
  1723  1053  2025   un
  1724  1054  1486   un
  1725  1055  1487   un
  1726  1056  1091   un
  1727  1057  2003   un
  1728  1058  2000   un
  1729  1059  1413   un
  1730  1060  1410   un
  1731  1070  1071   un
  1732  1070  1074   un
  1733  1070  1084   un
  1734  1070  1120   un
  1735  1070  1121   un
  1736  1071  1112   un
  1737  1072  1088   un
  1738  1073  1089   un
  1739  1074  1090   un
  1740  1075  1091   un
  1741  1076  1092   un
  1742  1077  1093   un
  1743  1078  1094   un
  1744  1079  1095   un
  1745  1080  1113   un
  1746  1081  1112   un
  1747  1082  1095   un
  1748  1082  1124   un
  1749  1083  1092   un
  1750  1083  1125   un
  1751  1084  1094   un
  1752  1085  1093   un
  1753  1086  1090   un
  1754  1087  1089   un
  1755  1088  1096   un
  1756  1089  1097   un
  1757  1090  1098   un
  1758  1091  1099   un
  1759  1092  1100   un
  1760  1093  1101   un
  1761  1094  1102   un
  1762  1095  1103   un
  1763  1096  1097   un
  1764  1096  1104   un
  1765  1097  1105   un
  1766  1098  1099   un
  1767  1098  1106   un
  1768  1099  1107   un
  1769  1100  1101   un
  1770  1100  1108   un
  1771  1101  1109   un
  1772  1102  1103   un
  1773  1102  1110   un
  1774  1103  1111   un
  1775  1112  1114   un
  1776  1113  1115   un
  1777  1114  1115   un
  1778  1114  1116   un
  1779  1115  1117   un
  1780  1118  1124   un
  1781  1119  1125   un
  1782  1122  1124   un
  1783  1123  1131   un
  1784  1123  1133   un
  1785  1123  1994   un
  1786  1123  2044   un
  1787  1123  2046   un
  1788  1124  1134   un
  1789  1124  1607   un
  1790  1124  1619   un
  1791  1124  1623   un
  1792  1124  1633   un
  1793  1125  1132   un
  1794  1125  1624   un
  1795  1125  1706   un
  1796  1125  1714   un
  1797  1125  1718   un
  1798  1125  1726   un
  1799  1126  1673   un
  1800  1127  2056   un
  1801  1128  1678   un
  1802  1129  1679   un
  1803  1130  2049   un
  1804  1135  1136   un
  1805  1135  1140   un
  1806  1135  1142   un
  1807  1135  1143   un
  1808  1135  1156   un
  1809  1135  1186   un
  1810  1135  1280   un
  1811  1135  1284   un
  1812  1136  1138   un
  1813  1136  1142   un
  1814  1136  1160   un
  1815  1136  1171   un
  1816  1136  1190   un
  1817  1136  1283   un
  1818  1136  1284   un
  1819  1137  1144   un
  1820  1137  1162   un
  1821  1137  1172   un
  1822  1137  1282   un
  1823  1137  1286   un
  1824  1137  1293   un
  1825  1137  1295   un
  1826  1137  1298   un
  1827  1137  1301   un
  1828  1137  1307   un
  1829  1137  1314   un
  1830  1137  1315   un
  1831  1138  1140   un
  1832  1138  1142   un
  1833  1138  1146   un
  1834  1138  1164   un
  1835  1138  1174   un
  1836  1138  1283   un
  1837  1138  1288   un
  1838  1139  1148   un
  1839  1139  1176   un
  1840  1139  1289   un
  1841  1139  1291   un
  1842  1139  1297   un
  1843  1139  1300   un
  1844  1139  1309   un
  1845  1139  1312   un
  1846  1140  1142   un
  1847  1140  1150   un
  1848  1140  1178   un
  1849  1140  1192   un
  1850  1140  1280   un
  1851  1140  1288   un
  1852  1141  1152   un
  1853  1141  1166   un
  1854  1141  1180   un
  1855  1141  1279   un
  1856  1141  1287   un
  1857  1141  1290   un
  1858  1141  1294   un
  1859  1141  1296   un
  1860  1141  1299   un
  1861  1141  1310   un
  1862  1141  1313   un
  1863  1141  1317   un
  1864  1142  1154   un
  1865  1142  1168   un
  1866  1142  1182   un
  1867  1142  1193   un
  1868  1142  1280   un
  1869  1142  1283   un
  1870  1142  1284   un
  1871  1142  1288   un
  1872  1143  1237   un
  1873  1144  1239   un
  1874  1145  1240   un
  1875  1145  1296   un
  1876  1146  1241   un
  1877  1147  1242   un
  1878  1147  1297   un
  1879  1148  1243   un
  1880  1149  1244   un
  1881  1149  1298   un
  1882  1150  1245   un
  1883  1151  1246   un
  1884  1151  1299   un
  1885  1152  1247   un
  1886  1153  1248   un
  1887  1153  1300   un
  1888  1154  1249   un
  1889  1155  1250   un
  1890  1155  1301   un
  1891  1156  1195   un
  1892  1157  1196   un
  1893  1158  1197   un
  1894  1159  1198   un
  1895  1160  1199   un
  1896  1161  1200   un
  1897  1162  1201   un
  1898  1163  1202   un
  1899  1164  1203   un
  1900  1165  1204   un
  1901  1166  1205   un
  1902  1167  1206   un
  1903  1168  1207   un
  1904  1169  1208   un
  1905  1170  1238   un
  1906  1171  1237   un
  1907  1172  1250   un
  1908  1173  1247   un
  1909  1173  1296   un
  1910  1174  1249   un
  1911  1175  1248   un
  1912  1175  1297   un
  1913  1176  1242   un
  1914  1177  1239   un
  1915  1177  1298   un
  1916  1178  1241   un
  1917  1179  1240   un
  1918  1179  1299   un
  1919  1180  1246   un
  1920  1181  1243   un
  1921  1181  1300   un
  1922  1182  1245   un
  1923  1183  1244   un
  1924  1183  1301   un
  1925  1184  1208   un
  1926  1185  1205   un
  1927  1185  1290   un
  1928  1186  1207   un
  1929  1187  1206   un
  1930  1188  1204   un
  1931  1188  1292   un
  1932  1189  1201   un
  1933  1189  1293   un
  1934  1190  1203   un
  1935  1191  1202   un
  1936  1192  1195   un
  1937  1193  1199   un
  1938  1194  1198   un
  1939  1195  1209   un
  1940  1196  1210   un
  1941  1197  1211   un
  1942  1198  1212   un
  1943  1199  1213   un
  1944  1200  1214   un
  1945  1201  1215   un
  1946  1202  1216   un
  1947  1203  1217   un
  1948  1204  1218   un
  1949  1205  1219   un
  1950  1206  1220   un
  1951  1207  1221   un
  1952  1208  1222   un
  1953  1209  1210   un
  1954  1209  1223   un
  1955  1210  1224   un
  1956  1211  1212   un
  1957  1211  1225   un
  1958  1212  1226   un
  1959  1213  1214   un
  1960  1213  1227   un
  1961  1214  1228   un
  1962  1215  1216   un
  1963  1215  1229   un
  1964  1216  1230   un
  1965  1217  1218   un
  1966  1217  1231   un
  1967  1218  1232   un
  1968  1219  1220   un
  1969  1219  1233   un
  1970  1220  1234   un
  1971  1221  1222   un
  1972  1221  1235   un
  1973  1222  1236   un
  1974  1237  1251   un
  1975  1238  1252   un
  1976  1239  1253   un
  1977  1240  1254   un
  1978  1241  1255   un
  1979  1242  1256   un
  1980  1243  1257   un
  1981  1244  1258   un
  1982  1245  1259   un
  1983  1246  1260   un
  1984  1247  1261   un
  1985  1248  1262   un
  1986  1249  1263   un
  1987  1250  1264   un
  1988  1251  1252   un
  1989  1251  1265   un
  1990  1252  1266   un
  1991  1253  1254   un
  1992  1253  1267   un
  1993  1254  1268   un
  1994  1255  1256   un
  1995  1255  1269   un
  1996  1256  1270   un
  1997  1257  1258   un
  1998  1257  1271   un
  1999  1258  1272   un
  2000  1259  1260   un
  2001  1259  1273   un
  2002  1260  1274   un
  2003  1261  1262   un
  2004  1261  1275   un
  2005  1262  1276   un
  2006  1263  1264   un
  2007  1263  1277   un
  2008  1264  1278   un
  2009  1279  1290   un
  2010  1279  1299   un
  2011  1281  1292   un
  2012  1282  1293   un
  2013  1282  1301   un
  2014  1286  1298   un
  2015  1286  1301   un
  2016  1287  1296   un
  2017  1287  1299   un
  2018  1289  1297   un
  2019  1289  1300   un
  2020  1290  1294   un
  2021  1290  1299   un
  2022  1290  1317   un
  2023  1290  1347   un
  2024  1290  1561   un
  2025  1290  1575   un
  2026  1290  1584   un
  2027  1290  1590   un
  2028  1290  1613   un
  2029  1291  1300   un
  2030  1291  1312   un
  2031  1291  1780   un
  2032  1291  2070   un
  2033  1291  2082   un
  2034  1291  2120   un
  2035  1291  2126   un
  2036  1292  1981   un
  2037  1292  2071   un
  2038  1292  2077   un
  2039  1293  1295   un
  2040  1293  1301   un
  2041  1293  1315   un
  2042  1293  1569   un
  2043  1293  1612   un
  2044  1293  2072   un
  2045  1293  2118   un
  2046  1293  2121   un
  2047  1293  2122   un
  2048  1294  1296   un
  2049  1294  1313   un
  2050  1294  1317   un
  2051  1294  1575   un
  2052  1294  1613   un
  2053  1294  1732   un
  2054  1294  1742   un
  2055  1294  1783   un
  2056  1294  1785   un
  2057  1294  1788   un
  2058  1295  1298   un
  2059  1295  1314   un
  2060  1295  1315   un
  2061  1295  1357   un
  2062  1295  1399   un
  2063  1295  1569   un
  2064  1295  1589   un
  2065  1295  1595   un
  2066  1295  1609   un
  2067  1295  1612   un
  2068  1296  1299   un
  2069  1296  1313   un
  2070  1296  1555   un
  2071  1296  1575   un
  2072  1296  1734   un
  2073  1296  1786   un
  2074  1296  1788   un
  2075  1297  1300   un
  2076  1297  1736   un
  2077  1297  1775   un
  2078  1297  1780   un
  2079  1298  1301   un
  2080  1298  1314   un
  2081  1298  1363   un
  2082  1298  1569   un
  2083  1298  1599   un
  2084  1298  1602   un
  2085  1298  1609   un
  2086  1299  1365   un
  2087  1299  1403   un
  2088  1299  1555   un
  2089  1299  1561   un
  2090  1299  1575   un
  2091  1300  1312   un
  2092  1300  1775   un
  2093  1300  1780   un
  2094  1300  2074   un
  2095  1300  2124   un
  2096  1300  2126   un
  2097  1301  1569   un
  2098  1301  1602   un
  2099  1301  2076   un
  2100  1301  2084   un
  2101  1301  2118   un
  2102  1302  1770   un
  2103  1303  1483   un
  2104  1304  1485   un
  2105  1305  1478   un
  2106  1306  1479   un
  2107  1307  1417   un
  2108  1308  1414   un
  2109  1309  2086   un
  2110  1310  1748   un
  2111  1311  1745   un
  2112  1319  1320   un
  2113  1319  1321   un
  2114  1319  1325   un
  2115  1319  1327   un
  2116  1319  1329   un
  2117  1319  1348   un
  2118  1319  1371   un
  2119  1319  1390   un
  2120  1319  1551   un
  2121  1319  1560   un
  2122  1319  1562   un
  2123  1319  1564   un
  2124  1320  1321   un
  2125  1320  1323   un
  2126  1320  1327   un
  2127  1320  1331   un
  2128  1320  1352   un
  2129  1320  1373   un
  2130  1320  1394   un
  2131  1320  1554   un
  2132  1320  1558   un
  2133  1320  1562   un
  2134  1320  1564   un
  2135  1321  1323   un
  2136  1321  1325   un
  2137  1321  1333   un
  2138  1321  1356   un
  2139  1321  1375   un
  2140  1321  1398   un
  2141  1321  1557   un
  2142  1321  1558   un
  2143  1321  1560   un
  2144  1321  1564   un
  2145  1322  1334   un
  2146  1322  1358   un
  2147  1322  1376   un
  2148  1322  1553   un
  2149  1322  1565   un
  2150  1322  1573   un
  2151  1322  1577   un
  2152  1322  1580   un
  2153  1322  1583   un
  2154  1322  1596   un
  2155  1322  1605   un
  2156  1322  1606   un
  2157  1323  1325   un
  2158  1323  1327   un
  2159  1323  1336   un
  2160  1323  1360   un
  2161  1323  1378   un
  2162  1323  1400   un
  2163  1323  1554   un
  2164  1323  1557   un
  2165  1323  1558   un
  2166  1323  1567   un
  2167  1324  1338   un
  2168  1324  1362   un
  2169  1324  1380   un
  2170  1324  1556   un
  2171  1324  1568   un
  2172  1324  1571   un
  2173  1324  1576   un
  2174  1324  1579   un
  2175  1324  1582   un
  2176  1324  1598   un
  2177  1324  1603   un
  2178  1324  1608   un
  2179  1325  1327   un
  2180  1325  1340   un
  2181  1325  1364   un
  2182  1325  1382   un
  2183  1325  1402   un
  2184  1325  1551   un
  2185  1325  1557   un
  2186  1325  1560   un
  2187  1325  1567   un
  2188  1326  1342   un
  2189  1326  1366   un
  2190  1326  1384   un
  2191  1326  1550   un
  2192  1326  1566   un
  2193  1326  1570   un
  2194  1326  1574   un
  2195  1326  1578   un
  2196  1326  1581   un
  2197  1326  1600   un
  2198  1326  1604   un
  2199  1326  1610   un
  2200  1327  1344   un
  2201  1327  1368   un
  2202  1327  1386   un
  2203  1327  1404   un
  2204  1327  1551   un
  2205  1327  1554   un
  2206  1327  1562   un
  2207  1327  1567   un
  2208  1328  1478   un
  2209  1329  1480   un
  2210  1330  1482   un
  2211  1331  1484   un
  2212  1332  1486   un
  2213  1333  1488   un
  2214  1334  1490   un
  2215  1335  1491   un
  2216  1335  1578   un
  2217  1336  1492   un
  2218  1337  1493   un
  2219  1337  1579   un
  2220  1338  1494   un
  2221  1339  1495   un
  2222  1339  1580   un
  2223  1340  1496   un
  2224  1341  1497   un
  2225  1341  1581   un
  2226  1342  1498   un
  2227  1343  1499   un
  2228  1343  1582   un
  2229  1344  1500   un
  2230  1345  1501   un
  2231  1345  1583   un
  2232  1346  1406   un
  2233  1347  1407   un
  2234  1348  1408   un
  2235  1349  1409   un
  2236  1350  1410   un
  2237  1351  1411   un
  2238  1352  1412   un
  2239  1353  1413   un
  2240  1354  1414   un
  2241  1355  1415   un
  2242  1356  1416   un
  2243  1357  1417   un
  2244  1358  1418   un
  2245  1359  1419   un
  2246  1360  1420   un
  2247  1361  1421   un
  2248  1362  1422   un
  2249  1363  1423   un
  2250  1364  1424   un
  2251  1365  1425   un
  2252  1366  1426   un
  2253  1367  1427   un
  2254  1368  1428   un
  2255  1369  1429   un
  2256  1370  1489   un
  2257  1371  1488   un
  2258  1372  1481   un
  2259  1373  1480   un
  2260  1374  1485   un
  2261  1375  1484   un
  2262  1376  1501   un
  2263  1377  1498   un
  2264  1377  1578   un
  2265  1378  1500   un
  2266  1379  1499   un
  2267  1379  1579   un
  2268  1380  1493   un
  2269  1381  1490   un
  2270  1381  1580   un
  2271  1382  1492   un
  2272  1383  1491   un
  2273  1383  1581   un
  2274  1384  1497   un
  2275  1385  1494   un
  2276  1385  1582   un
  2277  1386  1496   un
  2278  1387  1495   un
  2279  1387  1583   un
  2280  1388  1429   un
  2281  1389  1426   un
  2282  1389  1570   un
  2283  1390  1428   un
  2284  1391  1427   un
  2285  1392  1421   un
  2286  1392  1572   un
  2287  1393  1418   un
  2288  1393  1573   un
  2289  1394  1420   un
  2290  1395  1419   un
  2291  1396  1425   un
  2292  1396  1575   un
  2293  1397  1422   un
  2294  1397  1576   un
  2295  1398  1424   un
  2296  1399  1423   un
  2297  1400  1416   un
  2298  1401  1415   un
  2299  1402  1408   un
  2300  1403  1407   un
  2301  1404  1412   un
  2302  1405  1411   un
  2303  1406  1430   un
  2304  1407  1431   un
  2305  1408  1432   un
  2306  1409  1433   un
  2307  1410  1434   un
  2308  1411  1435   un
  2309  1412  1436   un
  2310  1413  1437   un
  2311  1414  1438   un
  2312  1415  1439   un
  2313  1416  1440   un
  2314  1417  1441   un
  2315  1418  1442   un
  2316  1419  1443   un
  2317  1420  1444   un
  2318  1421  1445   un
  2319  1422  1446   un
  2320  1423  1447   un
  2321  1424  1448   un
  2322  1425  1449   un
  2323  1426  1450   un
  2324  1427  1451   un
  2325  1428  1452   un
  2326  1429  1453   un
  2327  1430  1431   un
  2328  1430  1454   un
  2329  1431  1455   un
  2330  1432  1433   un
  2331  1432  1456   un
  2332  1433  1457   un
  2333  1434  1435   un
  2334  1434  1458   un
  2335  1435  1459   un
  2336  1436  1437   un
  2337  1436  1460   un
  2338  1437  1461   un
  2339  1438  1439   un
  2340  1438  1462   un
  2341  1439  1463   un
  2342  1440  1441   un
  2343  1440  1464   un
  2344  1441  1465   un
  2345  1442  1443   un
  2346  1442  1466   un
  2347  1443  1467   un
  2348  1444  1445   un
  2349  1444  1468   un
  2350  1445  1469   un
  2351  1446  1447   un
  2352  1446  1470   un
  2353  1447  1471   un
  2354  1448  1449   un
  2355  1448  1472   un
  2356  1449  1473   un
  2357  1450  1451   un
  2358  1450  1474   un
  2359  1451  1475   un
  2360  1452  1453   un
  2361  1452  1476   un
  2362  1453  1477   un
  2363  1478  1502   un
  2364  1479  1503   un
  2365  1480  1504   un
  2366  1481  1505   un
  2367  1482  1506   un
  2368  1483  1507   un
  2369  1484  1508   un
  2370  1485  1509   un
  2371  1486  1510   un
  2372  1487  1511   un
  2373  1488  1512   un
  2374  1489  1513   un
  2375  1490  1514   un
  2376  1491  1515   un
  2377  1492  1516   un
  2378  1493  1517   un
  2379  1494  1518   un
  2380  1495  1519   un
  2381  1496  1520   un
  2382  1497  1521   un
  2383  1498  1522   un
  2384  1499  1523   un
  2385  1500  1524   un
  2386  1501  1525   un
  2387  1502  1503   un
  2388  1502  1526   un
  2389  1503  1527   un
  2390  1504  1505   un
  2391  1504  1528   un
  2392  1505  1529   un
  2393  1506  1507   un
  2394  1506  1530   un
  2395  1507  1531   un
  2396  1508  1509   un
  2397  1508  1532   un
  2398  1509  1533   un
  2399  1510  1511   un
  2400  1510  1534   un
  2401  1511  1535   un
  2402  1512  1513   un
  2403  1512  1536   un
  2404  1513  1537   un
  2405  1514  1515   un
  2406  1514  1538   un
  2407  1515  1539   un
  2408  1516  1517   un
  2409  1516  1540   un
  2410  1517  1541   un
  2411  1518  1519   un
  2412  1518  1542   un
  2413  1519  1543   un
  2414  1520  1521   un
  2415  1520  1544   un
  2416  1521  1545   un
  2417  1522  1523   un
  2418  1522  1546   un
  2419  1523  1547   un
  2420  1524  1525   un
  2421  1524  1548   un
  2422  1525  1549   un
  2423  1550  1570   un
  2424  1550  1581   un
  2425  1552  1572   un
  2426  1553  1573   un
  2427  1553  1583   un
  2428  1555  1575   un
  2429  1556  1576   un
  2430  1556  1579   un
  2431  1559  1572   un
  2432  1561  1575   un
  2433  1565  1580   un
  2434  1565  1583   un
  2435  1566  1578   un
  2436  1566  1581   un
  2437  1568  1579   un
  2438  1568  1582   un
  2439  1569  1602   un
  2440  1569  1609   un
  2441  1569  1612   un
  2442  1569  2079   un
  2443  1569  2118   un
  2444  1569  2128   un
  2445  1569  2133   un
  2446  1569  2143   un
  2447  1570  1574   un
  2448  1570  1581   un
  2449  1570  1610   un
  2450  1570  1622   un
  2451  1570  1708   un
  2452  1570  1711   un
  2453  1570  1713   un
  2454  1570  1716   un
  2455  1570  1725   un
  2456  1571  1576   un
  2457  1571  1582   un
  2458  1571  1603   un
  2459  1571  1608   un
  2460  1571  1884   un
  2461  1571  1897   un
  2462  1571  2136   un
  2463  1571  2150   un
  2464  1571  2223   un
  2465  1571  2226   un
  2466  1571  2231   un
  2467  1572  1614   un
  2468  1572  2041   un
  2469  1572  2130   un
  2470  1572  2137   un
  2471  1572  2145   un
  2472  1573  1577   un
  2473  1573  1583   un
  2474  1573  1606   un
  2475  1573  1710   un
  2476  1573  1724   un
  2477  1573  2138   un
  2478  1573  2219   un
  2479  1573  2224   un
  2480  1573  2227   un
  2481  1574  1578   un
  2482  1574  1604   un
  2483  1574  1610   un
  2484  1574  1711   un
  2485  1574  1725   un
  2486  1574  1798   un
  2487  1574  1812   un
  2488  1574  1887   un
  2489  1574  1890   un
  2490  1574  1895   un
  2491  1575  1613   un
  2492  1575  1788   un
  2493  1575  1794   un
  2494  1575  1799   un
  2495  1575  1807   un
  2496  1576  1579   un
  2497  1576  1608   un
  2498  1576  1800   un
  2499  1576  1880   un
  2500  1576  1884   un
  2501  1576  1888   un
  2502  1576  1891   un
  2503  1576  1897   un
  2504  1577  1580   un
  2505  1577  1605   un
  2506  1577  1606   un
  2507  1577  1626   un
  2508  1577  1638   un
  2509  1577  1710   un
  2510  1577  1715   un
  2511  1577  1719   un
  2512  1577  1723   un
  2513  1577  1724   un
  2514  1578  1581   un
  2515  1578  1604   un
  2516  1578  1702   un
  2517  1578  1711   un
  2518  1578  1802   un
  2519  1578  1893   un
  2520  1578  1895   un
  2521  1579  1582   un
  2522  1579  1804   un
  2523  1579  1813   un
  2524  1579  1876   un
  2525  1579  1880   un
  2526  1579  1884   un
  2527  1580  1583   un
  2528  1580  1605   un
  2529  1580  1628   un
  2530  1580  1710   un
  2531  1580  1720   un
  2532  1580  1721   un
  2533  1580  1723   un
  2534  1581  1630   un
  2535  1581  1641   un
  2536  1581  1702   un
  2537  1581  1708   un
  2538  1581  1711   un
  2539  1582  1603   un
  2540  1582  1876   un
  2541  1582  1884   un
  2542  1582  2140   un
  2543  1582  2229   un
  2544  1582  2231   un
  2545  1583  1710   un
  2546  1583  1721   un
  2547  1583  2142   un
  2548  1583  2153   un
  2549  1583  2219   un
  2550  1584  1847   un
  2551  1585  1849   un
  2552  1586  1675   un
  2553  1587  1677   un
  2554  1588  2191   un
  2555  1589  2193   un
  2556  1590  1854   un
  2557  1591  1855   un
  2558  1592  1672   un
  2559  1593  1673   un
  2560  1594  2188   un
  2561  1595  2189   un
  2562  1596  1647   un
  2563  1597  1644   un
  2564  1598  2157   un
  2565  1599  2154   un
  2566  1600  1819   un
  2567  1601  1816   un
  2568  1615  1620   un
  2569  1615  1625   un
  2570  1615  1634   un
  2571  1615  1637   un
  2572  1615  1704   un
  2573  1615  1705   un
  2574  1615  1707   un
  2575  1615  1709   un
  2576  1616  1672   un
  2577  1617  1674   un
  2578  1618  1676   un
  2579  1619  1678   un
  2580  1620  1680   un
  2581  1621  1642   un
  2582  1622  1643   un
  2583  1623  1644   un
  2584  1624  1645   un
  2585  1625  1646   un
  2586  1626  1647   un
  2587  1627  1648   un
  2588  1628  1649   un
  2589  1629  1650   un
  2590  1630  1651   un
  2591  1631  1681   un
  2592  1632  1680   un
  2593  1633  1677   un
  2594  1634  1676   un
  2595  1635  1651   un
  2596  1635  1711   un
  2597  1636  1648   un
  2598  1636  1712   un
  2599  1637  1650   un
  2600  1638  1649   un
  2601  1639  1646   un
  2602  1640  1645   un
  2603  1641  1643   un
  2604  1642  1652   un
  2605  1643  1653   un
  2606  1644  1654   un
  2607  1645  1655   un
  2608  1646  1656   un
  2609  1647  1657   un
  2610  1648  1658   un
  2611  1649  1659   un
  2612  1650  1660   un
  2613  1651  1661   un
  2614  1652  1653   un
  2615  1652  1662   un
  2616  1653  1663   un
  2617  1654  1655   un
  2618  1654  1664   un
  2619  1655  1665   un
  2620  1656  1657   un
  2621  1656  1666   un
  2622  1657  1667   un
  2623  1658  1659   un
  2624  1658  1668   un
  2625  1659  1669   un
  2626  1660  1661   un
  2627  1660  1670   un
  2628  1661  1671   un
  2629  1672  1682   un
  2630  1673  1683   un
  2631  1674  1684   un
  2632  1675  1685   un
  2633  1676  1686   un
  2634  1677  1687   un
  2635  1678  1688   un
  2636  1679  1689   un
  2637  1680  1690   un
  2638  1681  1691   un
  2639  1682  1683   un
  2640  1682  1692   un
  2641  1683  1693   un
  2642  1684  1685   un
  2643  1684  1694   un
  2644  1685  1695   un
  2645  1686  1687   un
  2646  1686  1696   un
  2647  1687  1697   un
  2648  1688  1689   un
  2649  1688  1698   un
  2650  1689  1699   un
  2651  1690  1691   un
  2652  1690  1700   un
  2653  1691  1701   un
  2654  1702  1711   un
  2655  1703  1712   un
  2656  1708  1711   un
  2657  1710  1721   un
  2658  1710  1723   un
  2659  1710  1724   un
  2660  1710  2147   un
  2661  1710  2219   un
  2662  1710  2233   un
  2663  1710  2237   un
  2664  1710  2239   un
  2665  1711  1725   un
  2666  1711  1895   un
  2667  1711  1901   un
  2668  1711  1902   un
  2669  1711  1904   un
  2670  1712  1722   un
  2671  1712  1903   un
  2672  1712  1938   un
  2673  1712  1940   un
  2674  1712  1941   un
  2675  1712  1944   un
  2676  1713  1914   un
  2677  1714  2253   un
  2678  1715  2255   un
  2679  1716  1919   un
  2680  1717  1920   un
  2681  1718  2250   un
  2682  1719  2251   un
  2683  1720  2242   un
  2684  1727  1731   un
  2685  1727  1738   un
  2686  1727  1741   un
  2687  1727  1777   un
  2688  1727  1778   un
  2689  1728  1769   un
  2690  1729  1745   un
  2691  1730  1746   un
  2692  1731  1747   un
  2693  1732  1748   un
  2694  1733  1749   un
  2695  1734  1750   un
  2696  1735  1751   un
  2697  1736  1752   un
  2698  1737  1770   un
  2699  1738  1769   un
  2700  1739  1752   un
  2701  1739  1780   un
  2702  1740  1749   un
  2703  1740  1781   un
  2704  1741  1751   un
  2705  1742  1750   un
  2706  1743  1747   un
  2707  1744  1746   un
  2708  1745  1753   un
  2709  1746  1754   un
  2710  1747  1755   un
  2711  1748  1756   un
  2712  1749  1757   un
  2713  1750  1758   un
  2714  1751  1759   un
  2715  1752  1760   un
  2716  1753  1754   un
  2717  1753  1761   un
  2718  1754  1762   un
  2719  1755  1756   un
  2720  1755  1763   un
  2721  1756  1764   un
  2722  1757  1758   un
  2723  1757  1765   un
  2724  1758  1766   un
  2725  1759  1760   un
  2726  1759  1767   un
  2727  1760  1768   un
  2728  1769  1771   un
  2729  1770  1772   un
  2730  1771  1772   un
  2731  1771  1773   un
  2732  1772  1774   un
  2733  1775  1780   un
  2734  1776  1781   un
  2735  1780  2126   un
  2736  1780  2280   un
  2737  1780  2282   un
  2738  1781  1787   un
  2739  1781  1896   un
  2740  1781  2281   un
  2741  1781  2298   un
  2742  1781  2299   un
  2743  1781  2300   un
  2744  1782  1851   un
  2745  1783  1853   un
  2746  1784  1846   un
  2747  1785  1847   un
  2748  1786  1820   un
  2749  1789  1793   un
  2750  1789  1797   un
  2751  1789  1806   un
  2752  1789  1811   un
  2753  1789  1878   un
  2754  1789  1879   un
  2755  1789  1881   un
  2756  1789  1883   un
  2757  1790  1846   un
  2758  1791  1848   un
  2759  1792  1850   un
  2760  1793  1852   un
  2761  1794  1854   un
  2762  1795  1816   un
  2763  1796  1817   un
  2764  1797  1818   un
  2765  1798  1819   un
  2766  1799  1820   un
  2767  1800  1821   un
  2768  1801  1822   un
  2769  1802  1823   un
  2770  1803  1824   un
  2771  1804  1825   un
  2772  1805  1849   un
  2773  1806  1848   un
  2774  1807  1853   un
  2775  1808  1852   un
  2776  1809  1825   un
  2777  1809  1884   un
  2778  1810  1822   un
  2779  1810  1885   un
  2780  1811  1824   un
  2781  1812  1823   un
  2782  1813  1821   un
  2783  1814  1818   un
  2784  1815  1817   un
  2785  1816  1826   un
  2786  1817  1827   un
  2787  1818  1828   un
  2788  1819  1829   un
  2789  1820  1830   un
  2790  1821  1831   un
  2791  1822  1832   un
  2792  1823  1833   un
  2793  1824  1834   un
  2794  1825  1835   un
  2795  1826  1827   un
  2796  1826  1836   un
  2797  1827  1837   un
  2798  1828  1829   un
  2799  1828  1838   un
  2800  1829  1839   un
  2801  1830  1831   un
  2802  1830  1840   un
  2803  1831  1841   un
  2804  1832  1833   un
  2805  1832  1842   un
  2806  1833  1843   un
  2807  1834  1835   un
  2808  1834  1844   un
  2809  1835  1845   un
  2810  1846  1856   un
  2811  1847  1857   un
  2812  1848  1858   un
  2813  1849  1859   un
  2814  1850  1860   un
  2815  1851  1861   un
  2816  1852  1862   un
  2817  1853  1863   un
  2818  1854  1864   un
  2819  1855  1865   un
  2820  1856  1857   un
  2821  1856  1866   un
  2822  1857  1867   un
  2823  1858  1859   un
  2824  1858  1868   un
  2825  1859  1869   un
  2826  1860  1861   un
  2827  1860  1870   un
  2828  1861  1871   un
  2829  1862  1863   un
  2830  1862  1872   un
  2831  1863  1873   un
  2832  1864  1865   un
  2833  1864  1874   un
  2834  1865  1875   un
  2835  1876  1884   un
  2836  1877  1885   un
  2837  1880  1884   un
  2838  1884  1897   un
  2839  1884  2231   un
  2840  1884  2304   un
  2841  1884  2306   un
  2842  1884  2308   un
  2843  1885  1894   un
  2844  1885  1943   un
  2845  1885  2307   un
  2846  1885  2342   un
  2847  1885  2344   un
  2848  1885  2345   un
  2849  1886  1916   un
  2850  1887  1918   un
  2851  1888  2324   un
  2852  1889  1913   un
  2853  1890  1914   un
  2854  1891  2321   un
  2855  1892  2322   un
  2856  1893  1907   un
  2857  1898  1913   un
  2858  1899  1915   un
  2859  1900  1917   un
  2860  1901  1919   un
  2861  1902  1907   un
  2862  1903  1908   un
  2863  1904  1918   un
  2864  1905  1917   un
  2865  1906  1908   un
  2866  1907  1909   un
  2867  1908  1910   un
  2868  1909  1910   un
  2869  1909  1911   un
  2870  1910  1912   un
  2871  1913  1921   un
  2872  1914  1922   un
  2873  1915  1923   un
  2874  1916  1924   un
  2875  1917  1925   un
  2876  1918  1926   un
  2877  1919  1927   un
  2878  1920  1928   un
  2879  1921  1922   un
  2880  1921  1929   un
  2881  1922  1930   un
  2882  1923  1924   un
  2883  1923  1931   un
  2884  1924  1932   un
  2885  1925  1926   un
  2886  1925  1933   un
  2887  1926  1934   un
  2888  1927  1928   un
  2889  1927  1935   un
  2890  1928  1936   un
  2891  1940  2355   un
  2892  1941  2352   un
  2893  1942  2353   un
  2894  1945  1946   un
  2895  1945  1954   un
  2896  1945  1976   un
  2897  1946  1957   un
  2898  1947  1958   un
  2899  1948  1959   un
  2900  1949  1960   un
  2901  1950  1961   un
  2902  1951  1962   un
  2903  1952  1962   un
  2904  1953  1959   un
  2905  1953  1977   un
  2906  1954  1961   un
  2907  1955  1960   un
  2908  1956  1957   un
  2909  1957  1963   un
  2910  1958  1964   un
  2911  1959  1965   un
  2912  1960  1966   un
  2913  1961  1967   un
  2914  1962  1968   un
  2915  1963  1964   un
  2916  1963  1969   un
  2917  1964  1970   un
  2918  1965  1966   un
  2919  1965  1971   un
  2920  1966  1972   un
  2921  1967  1968   un
  2922  1967  1973   un
  2923  1968  1974   un
  2924  1975  1977   un
  2925  1977  1980   un
  2926  1977  1985   un
  2927  1977  2033   un
  2928  1977  2035   un
  2929  1977  2037   un
  2930  1977  2042   un
  2931  1978  2110   un
  2932  1979  2087   un
  2933  1982  1986   un
  2934  1982  1993   un
  2935  1982  1996   un
  2936  1982  2031   un
  2937  1982  2032   un
  2938  1983  2024   un
  2939  1984  2000   un
  2940  1985  2001   un
  2941  1986  2002   un
  2942  1987  2003   un
  2943  1988  2004   un
  2944  1989  2005   un
  2945  1990  2006   un
  2946  1991  2007   un
  2947  1992  2025   un
  2948  1993  2024   un
  2949  1994  2007   un
  2950  1995  2004   un
  2951  1995  2034   un
  2952  1996  2006   un
  2953  1997  2005   un
  2954  1998  2002   un
  2955  1999  2001   un
  2956  2000  2008   un
  2957  2001  2009   un
  2958  2002  2010   un
  2959  2003  2011   un
  2960  2004  2012   un
  2961  2005  2013   un
  2962  2006  2014   un
  2963  2007  2015   un
  2964  2008  2009   un
  2965  2008  2016   un
  2966  2009  2017   un
  2967  2010  2011   un
  2968  2010  2018   un
  2969  2011  2019   un
  2970  2012  2013   un
  2971  2012  2020   un
  2972  2013  2021   un
  2973  2014  2015   un
  2974  2014  2022   un
  2975  2015  2023   un
  2976  2024  2026   un
  2977  2025  2027   un
  2978  2026  2027   un
  2979  2026  2028   un
  2980  2027  2029   un
  2981  2030  2034   un
  2982  2034  2040   un
  2983  2034  2045   un
  2984  2034  2062   un
  2985  2034  2063   un
  2986  2034  2064   un
  2987  2034  2066   un
  2988  2035  2185   un
  2989  2036  2187   un
  2990  2037  2190   un
  2991  2038  2191   un
  2992  2039  2158   un
  2993  2043  2055   un
  2994  2044  2049   un
  2995  2045  2050   un
  2996  2046  2056   un
  2997  2047  2055   un
  2998  2048  2050   un
  2999  2049  2051   un
  3000  2050  2052   un
  3001  2051  2052   un
  3002  2051  2053   un
  3003  2052  2054   un
  3004  2055  2057   un
  3005  2056  2058   un
  3006  2057  2058   un
  3007  2057  2059   un
  3008  2058  2060   un
  3009  2063  2249   un
  3010  2064  2252   un
  3011  2065  2253   un
  3012  2067  2068   un
  3013  2067  2069   un
  3014  2067  2081   un
  3015  2067  2116   un
  3016  2067  2117   un
  3017  2068  2109   un
  3018  2069  2085   un
  3019  2070  2086   un
  3020  2071  2087   un
  3021  2072  2088   un
  3022  2073  2089   un
  3023  2074  2090   un
  3024  2075  2091   un
  3025  2076  2092   un
  3026  2077  2110   un
  3027  2078  2109   un
  3028  2079  2092   un
  3029  2080  2089   un
  3030  2080  2119   un
  3031  2081  2091   un
  3032  2082  2090   un
  3033  2083  2085   un
  3034  2084  2088   un
  3035  2085  2093   un
  3036  2086  2094   un
  3037  2087  2095   un
  3038  2088  2096   un
  3039  2089  2097   un
  3040  2090  2098   un
  3041  2091  2099   un
  3042  2092  2100   un
  3043  2093  2094   un
  3044  2093  2101   un
  3045  2094  2102   un
  3046  2095  2096   un
  3047  2095  2103   un
  3048  2096  2104   un
  3049  2097  2098   un
  3050  2097  2105   un
  3051  2098  2106   un
  3052  2099  2100   un
  3053  2099  2107   un
  3054  2100  2108   un
  3055  2109  2111   un
  3056  2110  2112   un
  3057  2111  2112   un
  3058  2111  2113   un
  3059  2112  2114   un
  3060  2115  2119   un
  3061  2119  2125   un
  3062  2119  2134   un
  3063  2119  2217   un
  3064  2119  2222   un
  3065  2119  2225   un
  3066  2119  2232   un
  3067  2120  2292   un
  3068  2121  2189   un
  3069  2122  2184   un
  3070  2123  2185   un
  3071  2124  2285   un
  3072  2127  2129   un
  3073  2127  2135   un
  3074  2127  2144   un
  3075  2127  2149   un
  3076  2127  2215   un
  3077  2127  2216   un
  3078  2127  2218   un
  3079  2127  2220   un
  3080  2128  2184   un
  3081  2129  2186   un
  3082  2130  2188   un
  3083  2131  2190   un
  3084  2132  2192   un
  3085  2133  2154   un
  3086  2134  2155   un
  3087  2135  2156   un
  3088  2136  2157   un
  3089  2137  2158   un
  3090  2138  2159   un
  3091  2139  2160   un
  3092  2140  2161   un
  3093  2141  2162   un
  3094  2142  2163   un
  3095  2143  2193   un
  3096  2144  2192   un
  3097  2145  2187   un
  3098  2146  2186   un
  3099  2147  2163   un
  3100  2148  2160   un
  3101  2148  2221   un
  3102  2149  2162   un
  3103  2150  2161   un
  3104  2151  2156   un
  3105  2152  2155   un
  3106  2153  2159   un
  3107  2154  2164   un
  3108  2155  2165   un
  3109  2156  2166   un
  3110  2157  2167   un
  3111  2158  2168   un
  3112  2159  2169   un
  3113  2160  2170   un
  3114  2161  2171   un
  3115  2162  2172   un
  3116  2163  2173   un
  3117  2164  2165   un
  3118  2164  2174   un
  3119  2165  2175   un
  3120  2166  2167   un
  3121  2166  2176   un
  3122  2167  2177   un
  3123  2168  2169   un
  3124  2168  2178   un
  3125  2169  2179   un
  3126  2170  2171   un
  3127  2170  2180   un
  3128  2171  2181   un
  3129  2172  2173   un
  3130  2172  2182   un
  3131  2173  2183   un
  3132  2184  2194   un
  3133  2185  2195   un
  3134  2186  2196   un
  3135  2187  2197   un
  3136  2188  2198   un
  3137  2189  2199   un
  3138  2190  2200   un
  3139  2191  2201   un
  3140  2192  2202   un
  3141  2193  2203   un
  3142  2194  2195   un
  3143  2194  2204   un
  3144  2195  2205   un
  3145  2196  2197   un
  3146  2196  2206   un
  3147  2197  2207   un
  3148  2198  2199   un
  3149  2198  2208   un
  3150  2199  2209   un
  3151  2200  2201   un
  3152  2200  2210   un
  3153  2201  2211   un
  3154  2202  2203   un
  3155  2202  2212   un
  3156  2203  2213   un
  3157  2214  2221   un
  3158  2221  2230   un
  3159  2221  2238   un
  3160  2221  2273   un
  3161  2221  2275   un
  3162  2221  2276   un
  3163  2221  2278   un
  3164  2222  2318   un
  3165  2223  2320   un
  3166  2224  2251   un
  3167  2225  2323   un
  3168  2226  2324   un
  3169  2227  2248   un
  3170  2228  2249   un
  3171  2229  2311   un
  3172  2233  2248   un
  3173  2234  2250   un
  3174  2235  2252   un
  3175  2236  2254   un
  3176  2237  2242   un
  3177  2238  2243   un
  3178  2239  2255   un
  3179  2240  2254   un
  3180  2241  2243   un
  3181  2242  2244   un
  3182  2243  2245   un
  3183  2244  2245   un
  3184  2244  2246   un
  3185  2245  2247   un
  3186  2248  2256   un
  3187  2249  2257   un
  3188  2250  2258   un
  3189  2251  2259   un
  3190  2252  2260   un
  3191  2253  2261   un
  3192  2254  2262   un
  3193  2255  2263   un
  3194  2256  2257   un
  3195  2256  2264   un
  3196  2257  2265   un
  3197  2258  2259   un
  3198  2258  2266   un
  3199  2259  2267   un
  3200  2260  2261   un
  3201  2260  2268   un
  3202  2261  2269   un
  3203  2262  2263   un
  3204  2262  2270   un
  3205  2263  2271   un
  3206  2275  2351   un
  3207  2276  2354   un
  3208  2277  2355   un
  3209  2279  2291   un
  3210  2280  2285   un
  3211  2281  2286   un
  3212  2282  2292   un
  3213  2283  2291   un
  3214  2284  2286   un
  3215  2285  2287   un
  3216  2286  2288   un
  3217  2287  2288   un
  3218  2287  2289   un
  3219  2288  2290   un
  3220  2291  2293   un
  3221  2292  2294   un
  3222  2293  2294   un
  3223  2293  2295   un
  3224  2294  2296   un
  3225  2299  2322   un
  3226  2300  2317   un
  3227  2301  2318   un
  3228  2302  2317   un
  3229  2303  2319   un
  3230  2304  2321   un
  3231  2305  2323   un
  3232  2306  2311   un
  3233  2307  2312   un
  3234  2308  2320   un
  3235  2309  2319   un
  3236  2310  2312   un
  3237  2311  2313   un
  3238  2312  2314   un
  3239  2313  2314   un
  3240  2313  2315   un
  3241  2314  2316   un
  3242  2317  2325   un
  3243  2318  2326   un
  3244  2319  2327   un
  3245  2320  2328   un
  3246  2321  2329   un
  3247  2322  2330   un
  3248  2323  2331   un
  3249  2324  2332   un
  3250  2325  2326   un
  3251  2325  2333   un
  3252  2326  2334   un
  3253  2327  2328   un
  3254  2327  2335   un
  3255  2328  2336   un
  3256  2329  2330   un
  3257  2329  2337   un
  3258  2330  2338   un
  3259  2331  2332   un
  3260  2331  2339   un
  3261  2332  2340   un
  3262  2344  2353   un
  3263  2345  2350   un
  3264  2346  2351   un
  3265  2347  2350   un
  3266  2348  2352   un
  3267  2349  2354   un
  3268  2350  2356   un
  3269  2351  2357   un
  3270  2352  2358   un
  3271  2353  2359   un
  3272  2354  2360   un
  3273  2355  2361   un
  3274  2356  2357   un
  3275  2356  2362   un
  3276  2357  2363   un
  3277  2358  2359   un
  3278  2358  2364   un
  3279  2359  2365   un
  3280  2360  2361   un
  3281  2360  2366   un
  3282  2361  2367   un
@<TRIPOS>CRYSIN
   17.8348   17.8348   17.8348    1.5708    1.5708    1.5708
