@<TRIPOS>MOLECULE
image0
   415   681     1     0     0
SMALL
NO_CHARGES
****
Generated from the CSD

@<TRIPOS>ATOM
     1 Zr1      2.4585   9.1159   0.2119   Zr        1 RES1   0.0000
     2 Zr2      6.4589  17.6363   0.2119   Zr        1 RES1   0.0000
     3 Zr3      6.4589   9.1159   8.7055   Zr        1 RES1   0.0000
     4 Zr4      2.4585  17.6363   8.7055   Zr        1 RES1   0.0000
     5 Zr5      0.2119   2.4585   9.1159   Zr        1 RES1   0.0000
     6 Zr6      0.2119   6.4589  17.6363   Zr        1 RES1   0.0000
     7 Zr7      8.7055   6.4589   9.1159   Zr        1 RES1   0.0000
     8 Zr8      8.7055   2.4585  17.6363   Zr        1 RES1   0.0000
     9 Zr9      9.1159   0.2119   2.4585   Zr        1 RES1   0.0000
    10 Zr10    17.6363   0.2119   6.4589   Zr        1 RES1   0.0000
    11 Zr11     9.1159   8.7055   6.4589   Zr        1 RES1   0.0000
    12 Zr12    17.6363   8.7055   2.4585   Zr        1 RES1   0.0000
    13 Zr13    15.3763   8.7189  17.6229   Zr        1 RES1   0.0000
    14 Zr14    11.3759   0.1985  17.6229   Zr        1 RES1   0.0000
    15 Zr15    11.3759   8.7189   9.1293   Zr        1 RES1   0.0000
    16 Zr16    15.3763   0.1985   9.1293   Zr        1 RES1   0.0000
    17 Zr17    17.6229  15.3763   8.7189   Zr        1 RES1   0.0000
    18 Zr18    17.6229  11.3759   0.1985   Zr        1 RES1   0.0000
    19 Zr19     9.1293  11.3759   8.7189   Zr        1 RES1   0.0000
    20 Zr20     9.1293  15.3763   0.1985   Zr        1 RES1   0.0000
    21 Zr21     8.7189  17.6229  15.3763   Zr        1 RES1   0.0000
    22 Zr22     0.1985  17.6229  11.3759   Zr        1 RES1   0.0000
    23 Zr23     8.7189   9.1293  11.3759   Zr        1 RES1   0.0000
    24 Zr24     0.1985   9.1293  15.3763   Zr        1 RES1   0.0000
    25 O1       3.7275   7.2855   0.1427   O.co2     1 RES1   0.0000
    26 O2       5.1899   1.6319   0.1427   O.co2     1 RES1   0.0000
    27 O3       5.1899   7.2855   8.7747   O.co2     1 RES1   0.0000
    28 O4       3.7275   1.6319   8.7747   O.co2     1 RES1   0.0000
    29 O5       0.1427   3.7275   7.2855   O.co2     1 RES1   0.0000
    30 O6       0.1427   5.1899   1.6319   O.co2     1 RES1   0.0000
    31 O7       8.7747   5.1899   7.2855   O.co2     1 RES1   0.0000
    32 O8       8.7747   3.7275   1.6319   O.co2     1 RES1   0.0000
    33 O9       7.2855   0.1427   3.7275   O.co2     1 RES1   0.0000
    34 O10      1.6319   0.1427   5.1899   O.co2     1 RES1   0.0000
    35 O11      7.2855   8.7747   5.1899   O.co2     1 RES1   0.0000
    36 O12      1.6319   8.7747   3.7275   O.co2     1 RES1   0.0000
    37 O13     14.1073  10.5493  17.6921   O.co2     1 RES1   0.0000
    38 O14     12.6449  16.2029  17.6921   O.co2     1 RES1   0.0000
    39 O15     12.6449  10.5493   9.0601   O.co2     1 RES1   0.0000
    40 O16     14.1073  16.2029   9.0601   O.co2     1 RES1   0.0000
    41 O17     17.6921  14.1073  10.5493   O.co2     1 RES1   0.0000
    42 O18     17.6921  12.6449  16.2029   O.co2     1 RES1   0.0000
    43 O19      9.0601  12.6449  10.5493   O.co2     1 RES1   0.0000
    44 O20      9.0601  14.1073  16.2029   O.co2     1 RES1   0.0000
    45 O21     10.5493  17.6921  14.1073   O.co2     1 RES1   0.0000
    46 O22     16.2029  17.6921  12.6449   O.co2     1 RES1   0.0000
    47 O23     10.5493   9.0601  12.6449   O.co2     1 RES1   0.0000
    48 O24     16.2029   9.0601  14.1073   O.co2     1 RES1   0.0000
    49 O25      3.3957  11.1396   0.4387   O.co2     1 RES1   0.0000
    50 O26      5.5217  15.6126   0.4387   O.co2     1 RES1   0.0000
    51 O27      5.5217  11.1396   8.4787   O.co2     1 RES1   0.0000
    52 O28      3.3957  15.6126   8.4787   O.co2     1 RES1   0.0000
    53 O29      0.4387   3.3957  11.1396   O.co2     1 RES1   0.0000
    54 O30      0.4387   5.5217  15.6126   O.co2     1 RES1   0.0000
    55 O31      8.4787   5.5217  11.1396   O.co2     1 RES1   0.0000
    56 O32      8.4787   3.3957  15.6126   O.co2     1 RES1   0.0000
    57 O33     11.1396   0.4387   3.3957   O.co2     1 RES1   0.0000
    58 O34     15.6126   0.4387   5.5217   O.co2     1 RES1   0.0000
    59 O35     11.1396   8.4787   5.5217   O.co2     1 RES1   0.0000
    60 O36     15.6126   8.4787   3.3957   O.co2     1 RES1   0.0000
    61 O37     14.4391   6.6952  17.3961   O.co2     1 RES1   0.0000
    62 O38     12.3131   2.2222  17.3961   O.co2     1 RES1   0.0000
    63 O39     12.3131   6.6952   9.3561   O.co2     1 RES1   0.0000
    64 O40     14.4391   2.2222   9.3561   O.co2     1 RES1   0.0000
    65 O41     17.3961  14.4391   6.6952   O.co2     1 RES1   0.0000
    66 O42     17.3961  12.3131   2.2222   O.co2     1 RES1   0.0000
    67 O43      9.3561  12.3131   6.6952   O.co2     1 RES1   0.0000
    68 O44      9.3561  14.4391   2.2222   O.co2     1 RES1   0.0000
    69 O45      6.6952  17.3961  14.4391   O.co2     1 RES1   0.0000
    70 O46      2.2222  17.3961  12.3131   O.co2     1 RES1   0.0000
    71 O47      6.6952   9.3561  12.3131   O.co2     1 RES1   0.0000
    72 O48      2.2222   9.3561  14.4391   O.co2     1 RES1   0.0000
    73 O49      3.3815   9.0476   2.2525   O.co2     1 RES1   0.0000
    74 O50      5.5359  -0.1302   2.2525   O.co2     1 RES1   0.0000
    75 O51      5.5359   9.0476   6.6649   O.co2     1 RES1   0.0000
    76 O52      3.3815  -0.1302   6.6649   O.co2     1 RES1   0.0000
    77 O53      2.2525   3.3815   9.0476   O.co2     1 RES1   0.0000
    78 O54      2.2525   5.5359  -0.1302   O.co2     1 RES1   0.0000
    79 O55      6.6649   5.5359   9.0476   O.co2     1 RES1   0.0000
    80 O56      6.6649   3.3815  -0.1302   O.co2     1 RES1   0.0000
    81 O57      9.0476   2.2525   3.3815   O.co2     1 RES1   0.0000
    82 O58     -0.1302   2.2525   5.5359   O.co2     1 RES1   0.0000
    83 O59      9.0476   6.6649   5.5359   O.co2     1 RES1   0.0000
    84 O60     -0.1302   6.6649   3.3815   O.co2     1 RES1   0.0000
    85 O61     14.4533   8.7872  15.5823   O.co2     1 RES1   0.0000
    86 O62     12.2989  17.9650  15.5823   O.co2     1 RES1   0.0000
    87 O63     12.2989   8.7872  11.1699   O.co2     1 RES1   0.0000
    88 O64     14.4533  17.9650  11.1699   O.co2     1 RES1   0.0000
    89 O65     15.5823  14.4533   8.7872   O.co2     1 RES1   0.0000
    90 O66     15.5823  12.2989  17.9650   O.co2     1 RES1   0.0000
    91 O67     11.1699  12.2989   8.7872   O.co2     1 RES1   0.0000
    92 O68     11.1699  14.4533  17.9650   O.co2     1 RES1   0.0000
    93 O69      8.7872  15.5823  14.4533   O.co2     1 RES1   0.0000
    94 O70     17.9650  15.5823  12.2989   O.co2     1 RES1   0.0000
    95 O71      8.7872  11.1699  12.2989   O.co2     1 RES1   0.0000
    96 O72     17.9650  11.1699  14.4533   O.co2     1 RES1   0.0000
    97 O73      3.7239   9.3437  16.2190   O.co2     1 RES1   0.0000
    98 O74      5.1935  17.4085  16.2190   O.co2     1 RES1   0.0000
    99 O75      5.1935   9.3437  10.5332   O.co2     1 RES1   0.0000
   100 O76      3.7239  17.4085  10.5332   O.co2     1 RES1   0.0000
   101 O77     16.2190   3.7239   9.3437   O.co2     1 RES1   0.0000
   102 O78     16.2190   5.1935  17.4085   O.co2     1 RES1   0.0000
   103 O79     10.5332   5.1935   9.3437   O.co2     1 RES1   0.0000
   104 O80     10.5332   3.7239  17.4085   O.co2     1 RES1   0.0000
   105 O81      9.3437  16.2190   3.7239   O.co2     1 RES1   0.0000
   106 O82     17.4085  16.2190   5.1935   O.co2     1 RES1   0.0000
   107 O83      9.3437  10.5332   5.1935   O.co2     1 RES1   0.0000
   108 O84     17.4085  10.5332   3.7239   O.co2     1 RES1   0.0000
   109 O85     14.1109   8.4911   1.6158   O.co2     1 RES1   0.0000
   110 O86     12.6413   0.4263   1.6158   O.co2     1 RES1   0.0000
   111 O87     12.6413   8.4911   7.3016   O.co2     1 RES1   0.0000
   112 O88     14.1109   0.4263   7.3016   O.co2     1 RES1   0.0000
   113 O89      1.6158  14.1109   8.4911   O.co2     1 RES1   0.0000
   114 O90      1.6158  12.6413   0.4263   O.co2     1 RES1   0.0000
   115 O91      7.3016  12.6413   8.4911   O.co2     1 RES1   0.0000
   116 O92      7.3016  14.1109   0.4263   O.co2     1 RES1   0.0000
   117 O93      8.4911   1.6158  14.1109   O.co2     1 RES1   0.0000
   118 O94      0.4263   1.6158  12.6413   O.co2     1 RES1   0.0000
   119 O95      8.4911   7.3016  12.6413   O.co2     1 RES1   0.0000
   120 O96      0.4263   7.3016  14.1109   O.co2     1 RES1   0.0000
   121 C1       2.8607  12.2900   0.4280   C.2       1 RES1   0.0000
   122 C2       6.0567  14.4622   0.4280   C.2       1 RES1   0.0000
   123 C3       6.0567  12.2900   8.4894   C.2       1 RES1   0.0000
   124 C4       2.8607  14.4622   8.4894   C.2       1 RES1   0.0000
   125 C5       0.4280   2.8607  12.2900   C.2       1 RES1   0.0000
   126 C6       0.4280   6.0567  14.4622   C.2       1 RES1   0.0000
   127 C7       8.4894   6.0567  12.2900   C.2       1 RES1   0.0000
   128 C8       8.4894   2.8607  14.4622   C.2       1 RES1   0.0000
   129 C9      12.2900   0.4280   2.8607   C.2       1 RES1   0.0000
   130 C10     14.4622   0.4280   6.0567   C.2       1 RES1   0.0000
   131 C11     12.2900   8.4894   6.0567   C.2       1 RES1   0.0000
   132 C12     14.4622   8.4894   2.8607   C.2       1 RES1   0.0000
   133 C13     14.9741   5.5448  17.4068   C.2       1 RES1   0.0000
   134 C14     11.7781   3.3726  17.4068   C.2       1 RES1   0.0000
   135 C15     11.7781   5.5448   9.3454   C.2       1 RES1   0.0000
   136 C16     14.9741   3.3726   9.3454   C.2       1 RES1   0.0000
   137 C17     17.4068  14.9741   5.5448   C.2       1 RES1   0.0000
   138 C18     17.4068  11.7781   3.3726   C.2       1 RES1   0.0000
   139 C19      9.3454  11.7781   5.5448   C.2       1 RES1   0.0000
   140 C20      9.3454  14.9741   3.3726   C.2       1 RES1   0.0000
   141 C21      5.5448  17.4068  14.9741   C.2       1 RES1   0.0000
   142 C22      3.3726  17.4068  11.7781   C.2       1 RES1   0.0000
   143 C23      5.5448   9.3454  11.7781   C.2       1 RES1   0.0000
   144 C24      3.3726   9.3454  14.9741   C.2       1 RES1   0.0000
   145 C25      3.8202  13.4742   0.4334   C.2       1 RES1   0.0000
   146 C26      5.0972  13.2780   0.4334   C.2       1 RES1   0.0000
   147 C27      5.0972  13.4742   8.4840   C.2       1 RES1   0.0000
   148 C28      3.8202  13.2780   8.4840   C.2       1 RES1   0.0000
   149 C29      0.4334   3.8202  13.4742   C.2       1 RES1   0.0000
   150 C30      0.4334   5.0972  13.2780   C.2       1 RES1   0.0000
   151 C31      8.4840   5.0972  13.4742   C.2       1 RES1   0.0000
   152 C32      8.4840   3.8202  13.2780   C.2       1 RES1   0.0000
   153 C33     13.4742   0.4334   3.8202   C.2       1 RES1   0.0000
   154 C34     13.2780   0.4334   5.0972   C.2       1 RES1   0.0000
   155 C35     13.4742   8.4840   5.0972   C.2       1 RES1   0.0000
   156 C36     13.2780   8.4840   3.8202   C.2       1 RES1   0.0000
   157 C37     14.0146   4.3606  17.4014   C.2       1 RES1   0.0000
   158 C38     12.7376   4.5568  17.4014   C.2       1 RES1   0.0000
   159 C39     12.7376   4.3606   9.3508   C.2       1 RES1   0.0000
   160 C40     14.0146   4.5568   9.3508   C.2       1 RES1   0.0000
   161 C41     17.4014  14.0146   4.3606   C.2       1 RES1   0.0000
   162 C42     17.4014  12.7376   4.5568   C.2       1 RES1   0.0000
   163 C43      9.3508  12.7376   4.3606   C.2       1 RES1   0.0000
   164 C44      9.3508  14.0146   4.5568   C.2       1 RES1   0.0000
   165 C45      4.3606  17.4014  14.0146   C.2       1 RES1   0.0000
   166 C46      4.5568  17.4014  12.7376   C.2       1 RES1   0.0000
   167 C47      4.3606   9.3508  12.7376   C.2       1 RES1   0.0000
   168 C48      4.5568   9.3508  14.0146   C.2       1 RES1   0.0000
   169 H1       3.4867  14.3427   0.4352   H         1 RES1   0.0000
   170 H2       5.4307  12.4095   0.4352   H         1 RES1   0.0000
   171 H3       5.4307  14.3427   8.4822   H         1 RES1   0.0000
   172 H4       3.4867  12.4095   8.4822   H         1 RES1   0.0000
   173 H5       0.4352   3.4867  14.3427   H         1 RES1   0.0000
   174 H6       0.4352   5.4307  12.4095   H         1 RES1   0.0000
   175 H7       8.4822   5.4307  14.3427   H         1 RES1   0.0000
   176 H8       8.4822   3.4867  12.4095   H         1 RES1   0.0000
   177 H9      14.3427   0.4352   3.4867   H         1 RES1   0.0000
   178 H10     12.4095   0.4352   5.4307   H         1 RES1   0.0000
   179 H11     14.3427   8.4822   5.4307   H         1 RES1   0.0000
   180 H12     12.4095   8.4822   3.4867   H         1 RES1   0.0000
   181 H13     14.3481   3.4921  17.3996   H         1 RES1   0.0000
   182 H14     12.4041   5.4253  17.3996   H         1 RES1   0.0000
   183 H15     12.4041   3.4921   9.3526   H         1 RES1   0.0000
   184 H16     14.3481   5.4253   9.3526   H         1 RES1   0.0000
   185 H17     17.3996  14.3481   3.4921   H         1 RES1   0.0000
   186 H18     17.3996  12.4041   5.4253   H         1 RES1   0.0000
   187 H19      9.3526  12.4041   3.4921   H         1 RES1   0.0000
   188 H20      9.3526  14.3481   5.4253   H         1 RES1   0.0000
   189 H21      3.4921  17.3996  14.3481   H         1 RES1   0.0000
   190 H22      5.4253  17.3996  12.4041   H         1 RES1   0.0000
   191 H23      3.4921   9.3526  12.4041   H         1 RES1   0.0000
   192 H24      5.4253   9.3526  14.3481   H         1 RES1   0.0000
   193 C49      3.3993   6.0603   0.0000   C.2       1 RES1   0.0000
   194 C50      5.5181   2.8571   0.0000   C.2       1 RES1   0.0000
   195 C51      5.5181   6.0603   8.9174   C.2       1 RES1   0.0000
   196 C52      3.3993   2.8571   8.9174   C.2       1 RES1   0.0000
   197 C53      0.0000   3.3993   6.0603   C.2       1 RES1   0.0000
   198 C54      0.0000   5.5181   2.8571   C.2       1 RES1   0.0000
   199 C55      8.9174   5.5181   6.0603   C.2       1 RES1   0.0000
   200 C56      8.9174   3.3993   2.8571   C.2       1 RES1   0.0000
   201 C57      6.0603   0.0000   3.3993   C.2       1 RES1   0.0000
   202 C58      2.8571   0.0000   5.5181   C.2       1 RES1   0.0000
   203 C59      6.0603   8.9174   5.5181   C.2       1 RES1   0.0000
   204 C60      2.8571   8.9174   3.3993   C.2       1 RES1   0.0000
   205 C61     14.4355  11.7745  17.8348   C.2       1 RES1   0.0000
   206 C62     12.3167  14.9777  17.8348   C.2       1 RES1   0.0000
   207 C63     12.3167  11.7745   8.9174   C.2       1 RES1   0.0000
   208 C64     14.4355  14.9777   8.9174   C.2       1 RES1   0.0000
   209 C65     17.8348  14.4355  11.7745   C.2       1 RES1   0.0000
   210 C66     17.8348  12.3167  14.9777   C.2       1 RES1   0.0000
   211 C67      8.9174  12.3167  11.7745   C.2       1 RES1   0.0000
   212 C68      8.9174  14.4355  14.9777   C.2       1 RES1   0.0000
   213 C69     11.7745  17.8348  14.4355   C.2       1 RES1   0.0000
   214 C70     14.9777  17.8348  12.3167   C.2       1 RES1   0.0000
   215 C71     11.7745   8.9174  12.3167   C.2       1 RES1   0.0000
   216 C72     14.9777   8.9174  14.4355   C.2       1 RES1   0.0000
   217 C73      4.5782   5.1097   0.0018   C.2       1 RES1   0.0000
   218 C74      4.3392   3.8077   0.0018   C.2       1 RES1   0.0000
   219 C75      4.3392   5.1097   8.9156   C.2       1 RES1   0.0000
   220 C76      4.5782   3.8077   8.9156   C.2       1 RES1   0.0000
   221 C77      0.0018   4.5782   5.1097   C.2       1 RES1   0.0000
   222 C78      0.0018   4.3392   3.8077   C.2       1 RES1   0.0000
   223 C79      8.9156   4.3392   5.1097   C.2       1 RES1   0.0000
   224 C80      8.9156   4.5782   3.8077   C.2       1 RES1   0.0000
   225 C81      5.1097   0.0018   4.5782   C.2       1 RES1   0.0000
   226 C82      3.8077   0.0018   4.3392   C.2       1 RES1   0.0000
   227 C83      5.1097   8.9156   4.3392   C.2       1 RES1   0.0000
   228 C84      3.8077   8.9156   4.5782   C.2       1 RES1   0.0000
   229 C85     13.2566  12.7251  17.8330   C.2       1 RES1   0.0000
   230 C86     13.4956  14.0271  17.8330   C.2       1 RES1   0.0000
   231 C87     13.4956  12.7251   8.9192   C.2       1 RES1   0.0000
   232 C88     13.2566  14.0271   8.9192   C.2       1 RES1   0.0000
   233 C89     17.8330  13.2566  12.7251   C.2       1 RES1   0.0000
   234 C90     17.8330  13.4956  14.0271   C.2       1 RES1   0.0000
   235 C91      8.9192  13.4956  12.7251   C.2       1 RES1   0.0000
   236 C92      8.9192  13.2566  14.0271   C.2       1 RES1   0.0000
   237 C93     12.7251  17.8330  13.2566   C.2       1 RES1   0.0000
   238 C94     14.0271  17.8330  13.4956   C.2       1 RES1   0.0000
   239 C95     12.7251   8.9192  13.4956   C.2       1 RES1   0.0000
   240 C96     14.0271   8.9192  13.2566   C.2       1 RES1   0.0000
   241 H25      5.4503   5.4325   0.0018   H         1 RES1   0.0000
   242 H26      3.4671   3.4849   0.0018   H         1 RES1   0.0000
   243 H27      3.4671   5.4325   8.9156   H         1 RES1   0.0000
   244 H28      5.4503   3.4849   8.9156   H         1 RES1   0.0000
   245 H29      0.0018   5.4503   5.4325   H         1 RES1   0.0000
   246 H30      0.0018   3.4671   3.4849   H         1 RES1   0.0000
   247 H31      8.9156   3.4671   5.4325   H         1 RES1   0.0000
   248 H32      8.9156   5.4503   3.4849   H         1 RES1   0.0000
   249 H33      5.4325   0.0018   5.4503   H         1 RES1   0.0000
   250 H34      3.4849   0.0018   3.4671   H         1 RES1   0.0000
   251 H35      5.4325   8.9156   3.4671   H         1 RES1   0.0000
   252 H36      3.4849   8.9156   5.4503   H         1 RES1   0.0000
   253 H37     12.3845  12.4023  17.8330   H         1 RES1   0.0000
   254 H38     14.3677  14.3499  17.8330   H         1 RES1   0.0000
   255 H39     14.3677  12.4023   8.9192   H         1 RES1   0.0000
   256 H40     12.3845  14.3499   8.9192   H         1 RES1   0.0000
   257 H41     17.8330  12.3845  12.4023   H         1 RES1   0.0000
   258 H42     17.8330  14.3677  14.3499   H         1 RES1   0.0000
   259 H43      8.9192  14.3677  12.4023   H         1 RES1   0.0000
   260 H44      8.9192  12.3845  14.3499   H         1 RES1   0.0000
   261 H45     12.4023  17.8330  12.3845   H         1 RES1   0.0000
   262 H46     14.3499  17.8330  14.3677   H         1 RES1   0.0000
   263 H47     12.4023   8.9192  14.3677   H         1 RES1   0.0000
   264 H48     14.3499   8.9192  12.3845   H         1 RES1   0.0000
   265 O97      1.3644  10.5529  16.6809   O.3       1 RES1   0.0000
   266 O98      7.5530  16.1993  16.6809   O.3       1 RES1   0.0000
   267 O99      7.5530  10.5529  10.0713   O.3       1 RES1   0.0000
   268 O100     1.3644  16.1993  10.0713   O.3       1 RES1   0.0000
   269 O101    16.6809   1.3644  10.5529   O.3       1 RES1   0.0000
   270 O102    16.6809   7.5530  16.1993   O.3       1 RES1   0.0000
   271 O103    10.0713   7.5530  10.5529   O.3       1 RES1   0.0000
   272 O104    10.0713   1.3644  16.1993   O.3       1 RES1   0.0000
   273 O105    10.5529  16.6809   1.3644   O.3       1 RES1   0.0000
   274 O106    16.1993  16.6809   7.5530   O.3       1 RES1   0.0000
   275 O107    10.5529  10.0713   7.5530   O.3       1 RES1   0.0000
   276 O108    16.1993  10.0713   1.3644   O.3       1 RES1   0.0000
   277 O109    16.4704   7.2819   1.1539   O.3       1 RES1   0.0000
   278 O110    10.2818   1.6355   1.1539   O.3       1 RES1   0.0000
   279 O111    10.2818   7.2819   7.7635   O.3       1 RES1   0.0000
   280 O112    16.4704   1.6355   7.7635   O.3       1 RES1   0.0000
   281 O113     1.1539  16.4704   7.2819   O.3       1 RES1   0.0000
   282 O114     1.1539  10.2818   1.6355   O.3       1 RES1   0.0000
   283 O115     7.7635  10.2818   7.2819   O.3       1 RES1   0.0000
   284 O116     7.7635  16.4704   1.6355   O.3       1 RES1   0.0000
   285 O117     7.2819   1.1539  16.4704   O.3       1 RES1   0.0000
   286 O118     1.6355   1.1539  10.2818   O.3       1 RES1   0.0000
   287 O119     7.2819   7.7635  10.2818   O.3       1 RES1   0.0000
   288 O153     1.4000   7.5174   1.4000   O.3       1 RES1   0.0000
   289 O154     7.5174   1.4000   1.4000   O.3       1 RES1   0.0000
   290 O155     7.5174   7.5174   7.5174   O.3       1 RES1   0.0000
   291 O156     1.4000   1.4000   7.5174   O.3       1 RES1   0.0000
   292 O157    16.4348  10.3174  16.4348   O.3       1 RES1   0.0000
   293 O158    10.3174  16.4348  16.4348   O.3       1 RES1   0.0000
   294 O159    10.3174  10.3174  10.3174   O.3       1 RES1   0.0000
   295 O160    16.4348  16.4348  10.3174   O.3       1 RES1   0.0000
   296 Zr1      2.4585   9.1159  18.0467   Zr        1 RES1   0.0000
   297 Zr1     20.2933   9.1159   0.2119   Zr        1 RES1   0.0000
   298 Zr2      6.4589  -0.1985   0.2119   Zr        1 RES1   0.0000
   299 Zr2      6.4589  -0.1985  18.0467   Zr        1 RES1   0.0000
   300 Zr2      6.4589  17.6363  18.0467   Zr        1 RES1   0.0000
   301 Zr4      2.4585  -0.1985   8.7055   Zr        1 RES1   0.0000
   302 Zr4     20.2933  -0.1985   8.7055   Zr        1 RES1   0.0000
   303 Zr4     20.2933  17.6363   8.7055   Zr        1 RES1   0.0000
   304 Zr5      0.2119  20.2933   9.1159   Zr        1 RES1   0.0000
   305 Zr5     18.0467   2.4585   9.1159   Zr        1 RES1   0.0000
   306 Zr6      0.2119   6.4589  -0.1985   Zr        1 RES1   0.0000
   307 Zr6     18.0467   6.4589  -0.1985   Zr        1 RES1   0.0000
   308 Zr6     18.0467   6.4589  17.6363   Zr        1 RES1   0.0000
   309 Zr8      8.7055   2.4585  -0.1985   Zr        1 RES1   0.0000
   310 Zr8      8.7055  20.2933  -0.1985   Zr        1 RES1   0.0000
   311 Zr8      8.7055  20.2933  17.6363   Zr        1 RES1   0.0000
   312 Zr9      9.1159   0.2119  20.2933   Zr        1 RES1   0.0000
   313 Zr9      9.1159  18.0467   2.4585   Zr        1 RES1   0.0000
   314 Zr10    -0.1985   0.2119   6.4589   Zr        1 RES1   0.0000
   315 Zr10    -0.1985  18.0467   6.4589   Zr        1 RES1   0.0000
   316 Zr10    17.6363  18.0467   6.4589   Zr        1 RES1   0.0000
   317 Zr12    -0.1985   8.7055   2.4585   Zr        1 RES1   0.0000
   318 Zr12    -0.1985   8.7055  20.2933   Zr        1 RES1   0.0000
   319 Zr12    17.6363   8.7055  20.2933   Zr        1 RES1   0.0000
   320 Zr13    -2.4585   8.7189  17.6229   Zr        1 RES1   0.0000
   321 Zr13    15.3763   8.7189  -0.2119   Zr        1 RES1   0.0000
   322 Zr14    11.3759   0.1985  -0.2119   Zr        1 RES1   0.0000
   323 Zr14    11.3759  18.0333  -0.2119   Zr        1 RES1   0.0000
   324 Zr14    11.3759  18.0333  17.6229   Zr        1 RES1   0.0000
   325 Zr16    -2.4585   0.1985   9.1293   Zr        1 RES1   0.0000
   326 Zr16    -2.4585  18.0333   9.1293   Zr        1 RES1   0.0000
   327 Zr16    15.3763  18.0333   9.1293   Zr        1 RES1   0.0000
   328 Zr17    -0.2119  15.3763   8.7189   Zr        1 RES1   0.0000
   329 Zr17    17.6229  -2.4585   8.7189   Zr        1 RES1   0.0000
   330 Zr18    -0.2119  11.3759   0.1985   Zr        1 RES1   0.0000
   331 Zr18    -0.2119  11.3759  18.0333   Zr        1 RES1   0.0000
   332 Zr18    17.6229  11.3759  18.0333   Zr        1 RES1   0.0000
   333 Zr20     9.1293  -2.4585   0.1985   Zr        1 RES1   0.0000
   334 Zr20     9.1293  -2.4585  18.0333   Zr        1 RES1   0.0000
   335 Zr20     9.1293  15.3763  18.0333   Zr        1 RES1   0.0000
   336 Zr21     8.7189  -0.2119  15.3763   Zr        1 RES1   0.0000
   337 Zr21     8.7189  17.6229  -2.4585   Zr        1 RES1   0.0000
   338 Zr22     0.1985  -0.2119  11.3759   Zr        1 RES1   0.0000
   339 Zr22    18.0333  -0.2119  11.3759   Zr        1 RES1   0.0000
   340 Zr22    18.0333  17.6229  11.3759   Zr        1 RES1   0.0000
   341 Zr24     0.1985   9.1293  -2.4585   Zr        1 RES1   0.0000
   342 Zr24    18.0333   9.1293  -2.4585   Zr        1 RES1   0.0000
   343 Zr24    18.0333   9.1293  15.3763   Zr        1 RES1   0.0000
   344 O2       5.1899  19.4667   0.1427   O.2       1 RES1   0.0000
   345 O4       3.7275  19.4667   8.7747   O.2       1 RES1   0.0000
   346 O6       0.1427   5.1899  19.4667   O.2       1 RES1   0.0000
   347 O8       8.7747   3.7275  19.4667   O.2       1 RES1   0.0000
   348 O10     19.4667   0.1427   5.1899   O.2       1 RES1   0.0000
   349 O12     19.4667   8.7747   3.7275   O.2       1 RES1   0.0000
   350 O14     12.6449  -1.6319  17.6921   O.2       1 RES1   0.0000
   351 O16     14.1073  -1.6319   9.0601   O.2       1 RES1   0.0000
   352 O18     17.6921  12.6449  -1.6319   O.2       1 RES1   0.0000
   353 O20      9.0601  14.1073  -1.6319   O.2       1 RES1   0.0000
   354 O22     -1.6319  17.6921  12.6449   O.2       1 RES1   0.0000
   355 O24     -1.6319   9.0601  14.1073   O.2       1 RES1   0.0000
   356 O50      5.5359  17.7046   2.2525   O.2       1 RES1   0.0000
   357 O52      3.3815  17.7046   6.6649   O.2       1 RES1   0.0000
   358 O54      2.2525   5.5359  17.7046   O.2       1 RES1   0.0000
   359 O56      6.6649   3.3815  17.7046   O.2       1 RES1   0.0000
   360 O58     17.7046   2.2525   5.5359   O.2       1 RES1   0.0000
   361 O60     17.7046   6.6649   3.3815   O.2       1 RES1   0.0000
   362 O62     12.2989   0.1302  15.5823   O.2       1 RES1   0.0000
   363 O64     14.4533   0.1302  11.1699   O.2       1 RES1   0.0000
   364 O66     15.5823  12.2989   0.1302   O.2       1 RES1   0.0000
   365 O68     11.1699  14.4533   0.1302   O.2       1 RES1   0.0000
   366 O70      0.1302  15.5823  12.2989   O.2       1 RES1   0.0000
   367 O72      0.1302  11.1699  14.4533   O.2       1 RES1   0.0000
   368 O73      3.7239   9.3437  -1.6158   O.2       1 RES1   0.0000
   369 O74      5.1935  17.4085  -1.6158   O.2       1 RES1   0.0000
   370 O77     -1.6158   3.7239   9.3437   O.2       1 RES1   0.0000
   371 O78     -1.6158   5.1935  17.4085   O.2       1 RES1   0.0000
   372 O81      9.3437  -1.6158   3.7239   O.2       1 RES1   0.0000
   373 O82     17.4085  -1.6158   5.1935   O.2       1 RES1   0.0000
   374 O85     14.1109   8.4911  19.4506   O.2       1 RES1   0.0000
   375 O86     12.6413   0.4263  19.4506   O.2       1 RES1   0.0000
   376 O89     19.4506  14.1109   8.4911   O.2       1 RES1   0.0000
   377 O90     19.4506  12.6413   0.4263   O.2       1 RES1   0.0000
   378 O93      8.4911  19.4506  14.1109   O.2       1 RES1   0.0000
   379 O94      0.4263  19.4506  12.6413   O.2       1 RES1   0.0000
   380 O97      1.3644  10.5529  -1.1539   O.2       1 RES1   0.0000
   381 O97     19.1992  10.5529  -1.1539   O.2       1 RES1   0.0000
   382 O98      7.5530  16.1993  -1.1539   O.2       1 RES1   0.0000
   383 O100    19.1992  16.1993  10.0713   O.2       1 RES1   0.0000
   384 O101    -1.1539   1.3644  10.5529   O.2       1 RES1   0.0000
   385 O101    -1.1539  19.1992  10.5529   O.2       1 RES1   0.0000
   386 O102    -1.1539   7.5530  16.1993   O.2       1 RES1   0.0000
   387 O104    10.0713  19.1992  16.1993   O.2       1 RES1   0.0000
   388 O105    10.5529  -1.1539   1.3644   O.2       1 RES1   0.0000
   389 O105    10.5529  -1.1539  19.1992   O.2       1 RES1   0.0000
   390 O106    16.1993  -1.1539   7.5530   O.2       1 RES1   0.0000
   391 O108    16.1993  10.0713  19.1992   O.2       1 RES1   0.0000
   392 O109    -1.3644   7.2819  18.9887   O.2       1 RES1   0.0000
   393 O109    16.4704   7.2819  18.9887   O.2       1 RES1   0.0000
   394 O110    10.2818   1.6355  18.9887   O.2       1 RES1   0.0000
   395 O112    -1.3644   1.6355   7.7635   O.2       1 RES1   0.0000
   396 O113    18.9887  -1.3644   7.2819   O.2       1 RES1   0.0000
   397 O113    18.9887  16.4704   7.2819   O.2       1 RES1   0.0000
   398 O114    18.9887  10.2818   1.6355   O.2       1 RES1   0.0000
   399 O116     7.7635  -1.3644   1.6355   O.2       1 RES1   0.0000
   400 O117     7.2819  18.9887  -1.3644   O.2       1 RES1   0.0000
   401 O117     7.2819  18.9887  16.4704   O.2       1 RES1   0.0000
   402 O118     1.6355  18.9887  10.2818   O.2       1 RES1   0.0000
   403 O120     1.6355   7.7635  -1.3644   O.2       1 RES1   0.0000
   404 O153     1.4000   7.5174  19.2348   O.2       1 RES1   0.0000
   405 O153    19.2348   7.5174   1.4000   O.2       1 RES1   0.0000
   406 O154     7.5174   1.4000  19.2348   O.2       1 RES1   0.0000
   407 O154     7.5174  19.2348   1.4000   O.2       1 RES1   0.0000
   408 O156     1.4000  19.2348   7.5174   O.2       1 RES1   0.0000
   409 O156    19.2348   1.4000   7.5174   O.2       1 RES1   0.0000
   410 O157    -1.4000  10.3174  16.4348   O.2       1 RES1   0.0000
   411 O157    16.4348  10.3174  -1.4000   O.2       1 RES1   0.0000
   412 O158    10.3174  -1.4000  16.4348   O.2       1 RES1   0.0000
   413 O158    10.3174  16.4348  -1.4000   O.2       1 RES1   0.0000
   414 O160    -1.4000  16.4348  10.3174   O.2       1 RES1   0.0000
   415 O160    16.4348  -1.4000  10.3174   O.2       1 RES1   0.0000
@<TRIPOS>BOND
     1     1    25   un
     2     1    49   un
     3     1    73   un
     4     1   282    1
     5     1   288    1
     6     1   306   un
     7     1   317   un
     8     1   330   un
     9     1   341   un
    10     1   368   un
    11     1   380   un
    12     1   403   un
    13     2    20   un
    14     2    50   un
    15     2   284    1
    16     2   310   un
    17     2   313   un
    18     2   337   un
    19     2   344   un
    20     2   356   un
    21     2   369   un
    22     2   382   un
    23     2   400   un
    24     2   407   un
    25     3     7   un
    26     3    11   un
    27     3    19   un
    28     3    23   un
    29     3    27   un
    30     3    51   un
    31     3    75   un
    32     3    99   un
    33     3   267    1
    34     3   283    1
    35     3   287    1
    36     3   290    1
    37     4    22   un
    38     4    52   un
    39     4   100   un
    40     4   268    1
    41     4   281    1
    42     4   304   un
    43     4   315   un
    44     4   328   un
    45     4   345   un
    46     4   357   un
    47     4   402   un
    48     4   408   un
    49     5    29   un
    50     5    53   un
    51     5    77   un
    52     5   286    1
    53     5   291    1
    54     5   301   un
    55     5   314   un
    56     5   325   un
    57     5   338   un
    58     5   370   un
    59     5   384   un
    60     5   395   un
    61     6    24   un
    62     6    54   un
    63     6   296   un
    64     6   318   un
    65     6   320   un
    66     6   346   un
    67     6   358   un
    68     6   371   un
    69     6   386   un
    70     6   392   un
    71     6   404   un
    72     7    11   un
    73     7    15   un
    74     7    23   un
    75     7    31   un
    76     7    55   un
    77     7    79   un
    78     7   103   un
    79     7   271    1
    80     7   279    1
    81     7   287    1
    82     7   290    1
    83     8    14   un
    84     8    56   un
    85     8   104   un
    86     8   272    1
    87     8   285    1
    88     8   299   un
    89     8   312   un
    90     8   336   un
    91     8   347   un
    92     8   359   un
    93     8   394   un
    94     8   406   un
    95     9    33   un
    96     9    57   un
    97     9    81   un
    98     9   278    1
    99     9   289    1
   100     9   298   un
   101     9   309   un
   102     9   322   un
   103     9   333   un
   104     9   372   un
   105     9   388   un
   106     9   399   un
   107    10    16   un
   108    10    58   un
   109    10   280    1
   110    10   302   un
   111    10   305   un
   112    10   329   un
   113    10   348   un
   114    10   360   un
   115    10   373   un
   116    10   390   un
   117    10   396   un
   118    10   409   un
   119    11    15   un
   120    11    19   un
   121    11    35   un
   122    11    59   un
   123    11    83   un
   124    11   107   un
   125    11   275    1
   126    11   279    1
   127    11   283    1
   128    11   290    1
   129    12    18   un
   130    12    60   un
   131    12   108   un
   132    12   276    1
   133    12   277    1
   134    12   297   un
   135    12   307   un
   136    12   321   un
   137    12   349   un
   138    12   361   un
   139    12   398   un
   140    12   405   un
   141    13    37   un
   142    13    61   un
   143    13    85   un
   144    13   270    1
   145    13   292    1
   146    13   308   un
   147    13   319   un
   148    13   332   un
   149    13   343   un
   150    13   374   un
   151    13   391   un
   152    13   393   un
   153    14    62   un
   154    14   272    1
   155    14   312   un
   156    14   334   un
   157    14   336   un
   158    14   350   un
   159    14   362   un
   160    14   375   un
   161    14   389   un
   162    14   394   un
   163    14   412   un
   164    15    19   un
   165    15    23   un
   166    15    39   un
   167    15    63   un
   168    15    87   un
   169    15   111   un
   170    15   271    1
   171    15   275    1
   172    15   279    1
   173    15   294    1
   174    16    64   un
   175    16   112   un
   176    16   269    1
   177    16   280    1
   178    16   305   un
   179    16   329   un
   180    16   339   un
   181    16   351   un
   182    16   363   un
   183    16   390   un
   184    16   415   un
   185    17    41   un
   186    17    65   un
   187    17    89   un
   188    17   274    1
   189    17   295    1
   190    17   303   un
   191    17   316   un
   192    17   327   un
   193    17   340   un
   194    17   376   un
   195    17   383   un
   196    17   397   un
   197    18    66   un
   198    18   276    1
   199    18   297   un
   200    18   321   un
   201    18   342   un
   202    18   352   un
   203    18   364   un
   204    18   377   un
   205    18   381   un
   206    18   398   un
   207    18   411   un
   208    19    23   un
   209    19    43   un
   210    19    67   un
   211    19    91   un
   212    19   115   un
   213    19   267    1
   214    19   275    1
   215    19   283    1
   216    19   294    1
   217    20    68   un
   218    20   116   un
   219    20   273    1
   220    20   284    1
   221    20   313   un
   222    20   323   un
   223    20   337   un
   224    20   353   un
   225    20   365   un
   226    20   382   un
   227    20   413   un
   228    21    45   un
   229    21    69   un
   230    21    93   un
   231    21   266    1
   232    21   293    1
   233    21   300   un
   234    21   311   un
   235    21   324   un
   236    21   335   un
   237    21   378   un
   238    21   387   un
   239    21   401   un
   240    22    70   un
   241    22   268    1
   242    22   304   un
   243    22   326   un
   244    22   328   un
   245    22   354   un
   246    22   366   un
   247    22   379   un
   248    22   385   un
   249    22   402   un
   250    22   414   un
   251    23    47   un
   252    23    71   un
   253    23    95   un
   254    23   119   un
   255    23   267    1
   256    23   271    1
   257    23   287    1
   258    23   294    1
   259    24    72   un
   260    24   120   un
   261    24   265    1
   262    24   296   un
   263    24   320   un
   264    24   331   un
   265    24   355   un
   266    24   367   un
   267    24   386   un
   268    24   410   un
   269    25   193   un
   270    26   194   un
   271    26   298   un
   272    27   195   un
   273    28   196   un
   274    28   301   un
   275    29   197   un
   276    30   198   un
   277    30   306   un
   278    31   199   un
   279    32   200   un
   280    32   309   un
   281    33   201   un
   282    34   202   un
   283    34   314   un
   284    35   203   un
   285    36   204   un
   286    36   317   un
   287    37   205   un
   288    38   206   un
   289    38   324   un
   290    39   207   un
   291    40   208   un
   292    40   327   un
   293    41   209   un
   294    42   210   un
   295    42   332   un
   296    43   211   un
   297    44   212   un
   298    44   335   un
   299    45   213   un
   300    46   214   un
   301    46   340   un
   302    47   215   un
   303    48   216   un
   304    48   343   un
   305    49   121   un
   306    50   122   un
   307    51   123   un
   308    52   124   un
   309    53   125   un
   310    54   126   un
   311    55   127   un
   312    56   128   un
   313    57   129   un
   314    58   130   un
   315    59   131   un
   316    60   132   un
   317    61   133   un
   318    62   134   un
   319    63   135   un
   320    64   136   un
   321    65   137   un
   322    66   138   un
   323    67   139   un
   324    68   140   un
   325    69   141   un
   326    70   142   un
   327    71   143   un
   328    72   144   un
   329    73   204   un
   330    74   201   un
   331    74   298   un
   332    75   203   un
   333    76   202   un
   334    76   301   un
   335    77   196   un
   336    78   193   un
   337    78   306   un
   338    79   195   un
   339    80   194   un
   340    80   309   un
   341    81   200   un
   342    82   197   un
   343    82   314   un
   344    83   199   un
   345    84   198   un
   346    84   317   un
   347    85   216   un
   348    86   213   un
   349    86   324   un
   350    87   215   un
   351    88   214   un
   352    88   327   un
   353    89   208   un
   354    90   205   un
   355    90   332   un
   356    91   207   un
   357    92   206   un
   358    92   335   un
   359    93   212   un
   360    94   209   un
   361    94   340   un
   362    95   211   un
   363    96   210   un
   364    96   343   un
   365    97   144   un
   366    97   296   un
   367    98   141   un
   368    98   300   un
   369    99   143   un
   370   100   142   un
   371   101   136   un
   372   101   305   un
   373   102   133   un
   374   102   308   un
   375   103   135   un
   376   104   134   un
   377   105   140   un
   378   105   313   un
   379   106   137   un
   380   106   316   un
   381   107   139   un
   382   108   138   un
   383   109   132   un
   384   109   321   un
   385   110   129   un
   386   110   322   un
   387   111   131   un
   388   112   130   un
   389   113   124   un
   390   113   328   un
   391   114   121   un
   392   114   330   un
   393   115   123   un
   394   116   122   un
   395   117   128   un
   396   117   336   un
   397   118   125   un
   398   118   338   un
   399   119   127   un
   400   120   126   un
   401   121   145   un
   402   122   146   un
   403   123   147   un
   404   124   148   un
   405   125   149   un
   406   126   150   un
   407   127   151   un
   408   128   152   un
   409   129   153   un
   410   130   154   un
   411   131   155   un
   412   132   156   un
   413   133   157   un
   414   134   158   un
   415   135   159   un
   416   136   160   un
   417   137   161   un
   418   138   162   un
   419   139   163   un
   420   140   164   un
   421   141   165   un
   422   142   166   un
   423   143   167   un
   424   144   168   un
   425   145   146   un
   426   145   169    1
   427   146   170    1
   428   147   148   un
   429   147   171    1
   430   148   172    1
   431   149   150   un
   432   149   173    1
   433   150   174    1
   434   151   152   un
   435   151   175    1
   436   152   176    1
   437   153   154   un
   438   153   177    1
   439   154   178    1
   440   155   156   un
   441   155   179    1
   442   156   180    1
   443   157   158   un
   444   157   181    1
   445   158   182    1
   446   159   160   un
   447   159   183    1
   448   160   184    1
   449   161   162   un
   450   161   185    1
   451   162   186    1
   452   163   164   un
   453   163   187    1
   454   164   188    1
   455   165   166   un
   456   165   189    1
   457   166   190    1
   458   167   168   un
   459   167   191    1
   460   168   192    1
   461   193   217   un
   462   194   218   un
   463   195   219   un
   464   196   220   un
   465   197   221   un
   466   198   222   un
   467   199   223   un
   468   200   224   un
   469   201   225   un
   470   202   226   un
   471   203   227   un
   472   204   228   un
   473   205   229   un
   474   206   230   un
   475   207   231   un
   476   208   232   un
   477   209   233   un
   478   210   234   un
   479   211   235   un
   480   212   236   un
   481   213   237   un
   482   214   238   un
   483   215   239   un
   484   216   240   un
   485   217   218   un
   486   217   241    1
   487   218   242    1
   488   219   220   un
   489   219   243    1
   490   220   244    1
   491   221   222   un
   492   221   245    1
   493   222   246    1
   494   223   224   un
   495   223   247    1
   496   224   248    1
   497   225   226   un
   498   225   249    1
   499   226   250    1
   500   227   228   un
   501   227   251    1
   502   228   252    1
   503   229   230   un
   504   229   253    1
   505   230   254    1
   506   231   232   un
   507   231   255    1
   508   232   256    1
   509   233   234   un
   510   233   257    1
   511   234   258    1
   512   235   236   un
   513   235   259    1
   514   236   260    1
   515   237   238   un
   516   237   261    1
   517   238   262    1
   518   239   240   un
   519   239   263    1
   520   240   264    1
   521   265   296    1
   522   265   331    1
   523   266   300    1
   524   266   335    1
   525   268   328    1
   526   269   305    1
   527   269   339    1
   528   270   308    1
   529   270   343    1
   530   272   336    1
   531   273   313    1
   532   273   323    1
   533   274   316    1
   534   274   327    1
   535   276   321    1
   536   277   307    1
   537   277   321    1
   538   278   309    1
   539   278   322    1
   540   280   305    1
   541   281   315    1
   542   281   328    1
   543   282   317    1
   544   282   330    1
   545   284   313    1
   546   285   299   un
   547   285   336    1
   548   286   301    1
   549   286   338    1
   550   288   306    1
   551   288   317    1
   552   289   298    1
   553   289   309    1
   554   291   301    1
   555   291   314    1
   556   292   332    1
   557   292   343    1
   558   293   324    1
   559   293   335    1
   560   295   327    1
   561   295   340    1
   562   296   318   un
   563   296   331   un
   564   296   404   un
   565   297   307   un
   566   297   342   un
   567   297   381   un
   568   297   398   un
   569   297   405   un
   570   298   309   un
   571   298   333   un
   572   298   399   un
   573   299   312   un
   574   299   334    1
   575   299   336   un
   576   299   406   un
   577   300   311   un
   578   300   335   un
   579   300   401   un
   580   301   314   un
   581   301   338   un
   582   302   305   un
   583   302   329   un
   584   302   339   un
   585   302   396   un
   586   302   409   un
   587   303   316   un
   588   303   340   un
   589   303   383   un
   590   303   397   un
   591   304   315   un
   592   304   326   un
   593   304   385   un
   594   304   402   un
   595   304   408   un
   596   305   339   un
   597   305   409   un
   598   306   317   un
   599   306   341   un
   600   306   403   un
   601   307   321   un
   602   307   342   un
   603   307   405   un
   604   308   319   un
   605   308   343   un
   606   308   393   un
   607   309   322   un
   608   310   313   un
   609   310   323   un
   610   310   337   un
   611   310   400   un
   612   310   407   un
   613   311   324   un
   614   311   387   un
   615   311   401   un
   616   312   334   un
   617   312   389   un
   618   312   394   un
   619   312   406   un
   620   313   323   un
   621   313   407   un
   622   314   325   un
   623   314   395   un
   624   315   326   un
   625   315   328   un
   626   315   408   un
   627   316   327   un
   628   316   397   un
   629   317   330   un
   630   318   320   un
   631   318   331   un
   632   318   392   un
   633   318   404   un
   634   319   332   un
   635   319   391   un
   636   319   393   un
   637   320   331   un
   638   320   386   un
   639   320   392   un
   640   320   410   un
   641   321   342   un
   642   321   411   un
   643   322   333   un
   644   322   388   un
   645   323   337   un
   646   323   413   un
   647   324   335   un
   648   324   387   un
   649   325   338   un
   650   325   384   un
   651   325   395   un
   652   326   328   un
   653   326   385   un
   654   326   414   un
   655   327   340   un
   656   328   414   un
   657   329   339   un
   658   329   390   un
   659   329   396   un
   660   329   415   un
   661   330   341   un
   662   330   380   un
   663   331   410   un
   664   332   343   un
   665   332   391   un
   666   333   388   un
   667   333   399   un
   668   334   336   un
   669   334   389   un
   670   334   412   un
   671   336   412   un
   672   337   382   un
   673   337   400   un
   674   337   413   un
   675   338   384   un
   676   339   415   un
   677   340   383   un
   678   341   380   un
   679   341   403   un
   680   342   381   un
   681   342   411   un
@<TRIPOS>SUBSTRUCTURE
     1 RES1        1 GROUP             0 ****  ****    0  
@<TRIPOS>CRYSIN
   17.8348   17.8348   17.8348   90.0000   90.0000   90.0000     1     1
