@<TRIPOS>MOLECULE
image0
  2820  4524     1     0     0
SMALL
NO_CHARGES
****
Generated from the CSD

@<TRIPOS>ATOM
     1 Zr1      2.4585   9.1159   0.2119   Zr        1 RES1   0.0000
     2 Zr2      6.4589  17.6363   0.2119   Zr        1 RES1   0.0000
     3 Zr3      6.4589   9.1159   8.7055   Zr        1 RES1   0.0000
     4 Zr4      2.4585  17.6363   8.7055   Zr        1 RES1   0.0000
     5 Zr5      0.2119   2.4585   9.1159   Zr        1 RES1   0.0000
     6 Zr6      0.2119   6.4589  17.6363   Zr        1 RES1   0.0000
     7 Zr7      8.7055   6.4589   9.1159   Zr        1 RES1   0.0000
     8 Zr8      8.7055   2.4585  17.6363   Zr        1 RES1   0.0000
     9 Zr9      9.1159   0.2119   2.4585   Zr        1 RES1   0.0000
    10 Zr10    17.6363   0.2119   6.4589   Zr        1 RES1   0.0000
    11 Zr11     9.1159   8.7055   6.4589   Zr        1 RES1   0.0000
    12 Zr12    17.6363   8.7055   2.4585   Zr        1 RES1   0.0000
    13 Zr13    15.3763   8.7189  17.6229   Zr        1 RES1   0.0000
    14 Zr14    11.3759   0.1985  17.6229   Zr        1 RES1   0.0000
    15 Zr15    11.3759   8.7189   9.1293   Zr        1 RES1   0.0000
    16 Zr16    15.3763   0.1985   9.1293   Zr        1 RES1   0.0000
    17 Zr17    17.6229  15.3763   8.7189   Zr        1 RES1   0.0000
    18 Zr18    17.6229  11.3759   0.1985   Zr        1 RES1   0.0000
    19 Zr19     9.1293  11.3759   8.7189   Zr        1 RES1   0.0000
    20 Zr20     9.1293  15.3763   0.1985   Zr        1 RES1   0.0000
    21 Zr21     8.7189  17.6229  15.3763   Zr        1 RES1   0.0000
    22 Zr22     0.1985  17.6229  11.3759   Zr        1 RES1   0.0000
    23 Zr23     8.7189   9.1293  11.3759   Zr        1 RES1   0.0000
    24 Zr24     0.1985   9.1293  15.3763   Zr        1 RES1   0.0000
    25 O1       3.7275   7.2855   0.1427   O.co2     1 RES1   0.0000
    26 O2       5.1899   1.6319   0.1427   O.co2     1 RES1   0.0000
    27 O3       5.1899   7.2855   8.7747   O.co2     1 RES1   0.0000
    28 O4       3.7275   1.6319   8.7747   O.co2     1 RES1   0.0000
    29 O5       0.1427   3.7275   7.2855   O.co2     1 RES1   0.0000
    30 O6       0.1427   5.1899   1.6319   O.co2     1 RES1   0.0000
    31 O7       8.7747   5.1899   7.2855   O.co2     1 RES1   0.0000
    32 O8       8.7747   3.7275   1.6319   O.co2     1 RES1   0.0000
    33 O9       7.2855   0.1427   3.7275   O.co2     1 RES1   0.0000
    34 O10      1.6319   0.1427   5.1899   O.co2     1 RES1   0.0000
    35 O11      7.2855   8.7747   5.1899   O.co2     1 RES1   0.0000
    36 O12      1.6319   8.7747   3.7275   O.co2     1 RES1   0.0000
    37 O13     14.1073  10.5493  17.6921   O.co2     1 RES1   0.0000
    38 O14     12.6449  16.2029  17.6921   O.co2     1 RES1   0.0000
    39 O15     12.6449  10.5493   9.0601   O.co2     1 RES1   0.0000
    40 O16     14.1073  16.2029   9.0601   O.co2     1 RES1   0.0000
    41 O17     17.6921  14.1073  10.5493   O.co2     1 RES1   0.0000
    42 O18     17.6921  12.6449  16.2029   O.co2     1 RES1   0.0000
    43 O19      9.0601  12.6449  10.5493   O.co2     1 RES1   0.0000
    44 O20      9.0601  14.1073  16.2029   O.co2     1 RES1   0.0000
    45 O21     10.5493  17.6921  14.1073   O.co2     1 RES1   0.0000
    46 O22     16.2029  17.6921  12.6449   O.co2     1 RES1   0.0000
    47 O23     10.5493   9.0601  12.6449   O.co2     1 RES1   0.0000
    48 O24     16.2029   9.0601  14.1073   O.co2     1 RES1   0.0000
    49 O25      3.3957  11.1396   0.4387   O.co2     1 RES1   0.0000
    50 O26      5.5217  15.6126   0.4387   O.co2     1 RES1   0.0000
    51 O27      5.5217  11.1396   8.4787   O.co2     1 RES1   0.0000
    52 O28      3.3957  15.6126   8.4787   O.co2     1 RES1   0.0000
    53 O29      0.4387   3.3957  11.1396   O.co2     1 RES1   0.0000
    54 O30      0.4387   5.5217  15.6126   O.co2     1 RES1   0.0000
    55 O31      8.4787   5.5217  11.1396   O.co2     1 RES1   0.0000
    56 O32      8.4787   3.3957  15.6126   O.co2     1 RES1   0.0000
    57 O33     11.1396   0.4387   3.3957   O.co2     1 RES1   0.0000
    58 O34     15.6126   0.4387   5.5217   O.co2     1 RES1   0.0000
    59 O35     11.1396   8.4787   5.5217   O.co2     1 RES1   0.0000
    60 O36     15.6126   8.4787   3.3957   O.co2     1 RES1   0.0000
    61 O37     14.4391   6.6952  17.3961   O.co2     1 RES1   0.0000
    62 O38     12.3131   2.2222  17.3961   O.co2     1 RES1   0.0000
    63 O39     12.3131   6.6952   9.3561   O.co2     1 RES1   0.0000
    64 O40     14.4391   2.2222   9.3561   O.co2     1 RES1   0.0000
    65 O41     17.3961  14.4391   6.6952   O.co2     1 RES1   0.0000
    66 O42     17.3961  12.3131   2.2222   O.co2     1 RES1   0.0000
    67 O43      9.3561  12.3131   6.6952   O.co2     1 RES1   0.0000
    68 O44      9.3561  14.4391   2.2222   O.co2     1 RES1   0.0000
    69 O45      6.6952  17.3961  14.4391   O.co2     1 RES1   0.0000
    70 O46      2.2222  17.3961  12.3131   O.co2     1 RES1   0.0000
    71 O47      6.6952   9.3561  12.3131   O.co2     1 RES1   0.0000
    72 O48      2.2222   9.3561  14.4391   O.co2     1 RES1   0.0000
    73 O49      3.3815   9.0476   2.2525   O.co2     1 RES1   0.0000
    74 O50      5.5359  -0.1302   2.2525   O.co2     1 RES1   0.0000
    75 O51      5.5359   9.0476   6.6649   O.co2     1 RES1   0.0000
    76 O52      3.3815  -0.1302   6.6649   O.co2     1 RES1   0.0000
    77 O53      2.2525   3.3815   9.0476   O.co2     1 RES1   0.0000
    78 O54      2.2525   5.5359  -0.1302   O.co2     1 RES1   0.0000
    79 O55      6.6649   5.5359   9.0476   O.co2     1 RES1   0.0000
    80 O56      6.6649   3.3815  -0.1302   O.co2     1 RES1   0.0000
    81 O57      9.0476   2.2525   3.3815   O.co2     1 RES1   0.0000
    82 O58     -0.1302   2.2525   5.5359   O.co2     1 RES1   0.0000
    83 O59      9.0476   6.6649   5.5359   O.co2     1 RES1   0.0000
    84 O60     -0.1302   6.6649   3.3815   O.co2     1 RES1   0.0000
    85 O61     14.4533   8.7872  15.5823   O.co2     1 RES1   0.0000
    86 O62     12.2989  17.9650  15.5823   O.co2     1 RES1   0.0000
    87 O63     12.2989   8.7872  11.1699   O.co2     1 RES1   0.0000
    88 O64     14.4533  17.9650  11.1699   O.co2     1 RES1   0.0000
    89 O65     15.5823  14.4533   8.7872   O.co2     1 RES1   0.0000
    90 O66     15.5823  12.2989  17.9650   O.co2     1 RES1   0.0000
    91 O67     11.1699  12.2989   8.7872   O.co2     1 RES1   0.0000
    92 O68     11.1699  14.4533  17.9650   O.co2     1 RES1   0.0000
    93 O69      8.7872  15.5823  14.4533   O.co2     1 RES1   0.0000
    94 O70     17.9650  15.5823  12.2989   O.co2     1 RES1   0.0000
    95 O71      8.7872  11.1699  12.2989   O.co2     1 RES1   0.0000
    96 O72     17.9650  11.1699  14.4533   O.co2     1 RES1   0.0000
    97 O73      3.7239   9.3437  16.2190   O.co2     1 RES1   0.0000
    98 O74      5.1935  17.4085  16.2190   O.co2     1 RES1   0.0000
    99 O75      5.1935   9.3437  10.5332   O.co2     1 RES1   0.0000
   100 O76      3.7239  17.4085  10.5332   O.co2     1 RES1   0.0000
   101 O77     16.2190   3.7239   9.3437   O.co2     1 RES1   0.0000
   102 O78     16.2190   5.1935  17.4085   O.co2     1 RES1   0.0000
   103 O79     10.5332   5.1935   9.3437   O.co2     1 RES1   0.0000
   104 O80     10.5332   3.7239  17.4085   O.co2     1 RES1   0.0000
   105 O81      9.3437  16.2190   3.7239   O.co2     1 RES1   0.0000
   106 O82     17.4085  16.2190   5.1935   O.co2     1 RES1   0.0000
   107 O83      9.3437  10.5332   5.1935   O.co2     1 RES1   0.0000
   108 O84     17.4085  10.5332   3.7239   O.co2     1 RES1   0.0000
   109 O85     14.1109   8.4911   1.6158   O.co2     1 RES1   0.0000
   110 O86     12.6413   0.4263   1.6158   O.co2     1 RES1   0.0000
   111 O87     12.6413   8.4911   7.3016   O.co2     1 RES1   0.0000
   112 O88     14.1109   0.4263   7.3016   O.co2     1 RES1   0.0000
   113 O89      1.6158  14.1109   8.4911   O.co2     1 RES1   0.0000
   114 O90      1.6158  12.6413   0.4263   O.co2     1 RES1   0.0000
   115 O91      7.3016  12.6413   8.4911   O.co2     1 RES1   0.0000
   116 O92      7.3016  14.1109   0.4263   O.co2     1 RES1   0.0000
   117 O93      8.4911   1.6158  14.1109   O.co2     1 RES1   0.0000
   118 O94      0.4263   1.6158  12.6413   O.co2     1 RES1   0.0000
   119 O95      8.4911   7.3016  12.6413   O.co2     1 RES1   0.0000
   120 O96      0.4263   7.3016  14.1109   O.co2     1 RES1   0.0000
   121 C1       2.8607  12.2900   0.4280   C.2       1 RES1   0.0000
   122 C2       6.0567  14.4622   0.4280   C.2       1 RES1   0.0000
   123 C3       6.0567  12.2900   8.4894   C.2       1 RES1   0.0000
   124 C4       2.8607  14.4622   8.4894   C.2       1 RES1   0.0000
   125 C5       0.4280   2.8607  12.2900   C.2       1 RES1   0.0000
   126 C6       0.4280   6.0567  14.4622   C.2       1 RES1   0.0000
   127 C7       8.4894   6.0567  12.2900   C.2       1 RES1   0.0000
   128 C8       8.4894   2.8607  14.4622   C.2       1 RES1   0.0000
   129 C9      12.2900   0.4280   2.8607   C.2       1 RES1   0.0000
   130 C10     14.4622   0.4280   6.0567   C.2       1 RES1   0.0000
   131 C11     12.2900   8.4894   6.0567   C.2       1 RES1   0.0000
   132 C12     14.4622   8.4894   2.8607   C.2       1 RES1   0.0000
   133 C13     14.9741   5.5448  17.4068   C.2       1 RES1   0.0000
   134 C14     11.7781   3.3726  17.4068   C.2       1 RES1   0.0000
   135 C15     11.7781   5.5448   9.3454   C.2       1 RES1   0.0000
   136 C16     14.9741   3.3726   9.3454   C.2       1 RES1   0.0000
   137 C17     17.4068  14.9741   5.5448   C.2       1 RES1   0.0000
   138 C18     17.4068  11.7781   3.3726   C.2       1 RES1   0.0000
   139 C19      9.3454  11.7781   5.5448   C.2       1 RES1   0.0000
   140 C20      9.3454  14.9741   3.3726   C.2       1 RES1   0.0000
   141 C21      5.5448  17.4068  14.9741   C.2       1 RES1   0.0000
   142 C22      3.3726  17.4068  11.7781   C.2       1 RES1   0.0000
   143 C23      5.5448   9.3454  11.7781   C.2       1 RES1   0.0000
   144 C24      3.3726   9.3454  14.9741   C.2       1 RES1   0.0000
   145 C25      3.8202  13.4742   0.4334   C.2       1 RES1   0.0000
   146 C26      5.0972  13.2780   0.4334   C.2       1 RES1   0.0000
   147 C27      5.0972  13.4742   8.4840   C.2       1 RES1   0.0000
   148 C28      3.8202  13.2780   8.4840   C.2       1 RES1   0.0000
   149 C29      0.4334   3.8202  13.4742   C.2       1 RES1   0.0000
   150 C30      0.4334   5.0972  13.2780   C.2       1 RES1   0.0000
   151 C31      8.4840   5.0972  13.4742   C.2       1 RES1   0.0000
   152 C32      8.4840   3.8202  13.2780   C.2       1 RES1   0.0000
   153 C33     13.4742   0.4334   3.8202   C.2       1 RES1   0.0000
   154 C34     13.2780   0.4334   5.0972   C.2       1 RES1   0.0000
   155 C35     13.4742   8.4840   5.0972   C.2       1 RES1   0.0000
   156 C36     13.2780   8.4840   3.8202   C.2       1 RES1   0.0000
   157 C37     14.0146   4.3606  17.4014   C.2       1 RES1   0.0000
   158 C38     12.7376   4.5568  17.4014   C.2       1 RES1   0.0000
   159 C39     12.7376   4.3606   9.3508   C.2       1 RES1   0.0000
   160 C40     14.0146   4.5568   9.3508   C.2       1 RES1   0.0000
   161 C41     17.4014  14.0146   4.3606   C.2       1 RES1   0.0000
   162 C42     17.4014  12.7376   4.5568   C.2       1 RES1   0.0000
   163 C43      9.3508  12.7376   4.3606   C.2       1 RES1   0.0000
   164 C44      9.3508  14.0146   4.5568   C.2       1 RES1   0.0000
   165 C45      4.3606  17.4014  14.0146   C.2       1 RES1   0.0000
   166 C46      4.5568  17.4014  12.7376   C.2       1 RES1   0.0000
   167 C47      4.3606   9.3508  12.7376   C.2       1 RES1   0.0000
   168 C48      4.5568   9.3508  14.0146   C.2       1 RES1   0.0000
   169 H1       3.4867  14.3427   0.4352   H         1 RES1   0.0000
   170 H2       5.4307  12.4095   0.4352   H         1 RES1   0.0000
   171 H3       5.4307  14.3427   8.4822   H         1 RES1   0.0000
   172 H4       3.4867  12.4095   8.4822   H         1 RES1   0.0000
   173 H5       0.4352   3.4867  14.3427   H         1 RES1   0.0000
   174 H6       0.4352   5.4307  12.4095   H         1 RES1   0.0000
   175 H7       8.4822   5.4307  14.3427   H         1 RES1   0.0000
   176 H8       8.4822   3.4867  12.4095   H         1 RES1   0.0000
   177 H9      14.3427   0.4352   3.4867   H         1 RES1   0.0000
   178 H10     12.4095   0.4352   5.4307   H         1 RES1   0.0000
   179 H11     14.3427   8.4822   5.4307   H         1 RES1   0.0000
   180 H12     12.4095   8.4822   3.4867   H         1 RES1   0.0000
   181 H13     14.3481   3.4921  17.3996   H         1 RES1   0.0000
   182 H14     12.4041   5.4253  17.3996   H         1 RES1   0.0000
   183 H15     12.4041   3.4921   9.3526   H         1 RES1   0.0000
   184 H16     14.3481   5.4253   9.3526   H         1 RES1   0.0000
   185 H17     17.3996  14.3481   3.4921   H         1 RES1   0.0000
   186 H18     17.3996  12.4041   5.4253   H         1 RES1   0.0000
   187 H19      9.3526  12.4041   3.4921   H         1 RES1   0.0000
   188 H20      9.3526  14.3481   5.4253   H         1 RES1   0.0000
   189 H21      3.4921  17.3996  14.3481   H         1 RES1   0.0000
   190 H22      5.4253  17.3996  12.4041   H         1 RES1   0.0000
   191 H23      3.4921   9.3526  12.4041   H         1 RES1   0.0000
   192 H24      5.4253   9.3526  14.3481   H         1 RES1   0.0000
   193 C49      3.3993   6.0603   0.0000   C.2       1 RES1   0.0000
   194 C50      5.5181   2.8571   0.0000   C.2       1 RES1   0.0000
   195 C51      5.5181   6.0603   8.9174   C.2       1 RES1   0.0000
   196 C52      3.3993   2.8571   8.9174   C.2       1 RES1   0.0000
   197 C53      0.0000   3.3993   6.0603   C.2       1 RES1   0.0000
   198 C54      0.0000   5.5181   2.8571   C.2       1 RES1   0.0000
   199 C55      8.9174   5.5181   6.0603   C.2       1 RES1   0.0000
   200 C56      8.9174   3.3993   2.8571   C.2       1 RES1   0.0000
   201 C57      6.0603   0.0000   3.3993   C.2       1 RES1   0.0000
   202 C58      2.8571   0.0000   5.5181   C.2       1 RES1   0.0000
   203 C59      6.0603   8.9174   5.5181   C.2       1 RES1   0.0000
   204 C60      2.8571   8.9174   3.3993   C.2       1 RES1   0.0000
   205 C61     14.4355  11.7745  17.8348   C.2       1 RES1   0.0000
   206 C62     12.3167  14.9777  17.8348   C.2       1 RES1   0.0000
   207 C63     12.3167  11.7745   8.9174   C.2       1 RES1   0.0000
   208 C64     14.4355  14.9777   8.9174   C.2       1 RES1   0.0000
   209 C65     17.8348  14.4355  11.7745   C.2       1 RES1   0.0000
   210 C66     17.8348  12.3167  14.9777   C.2       1 RES1   0.0000
   211 C67      8.9174  12.3167  11.7745   C.2       1 RES1   0.0000
   212 C68      8.9174  14.4355  14.9777   C.2       1 RES1   0.0000
   213 C69     11.7745  17.8348  14.4355   C.2       1 RES1   0.0000
   214 C70     14.9777  17.8348  12.3167   C.2       1 RES1   0.0000
   215 C71     11.7745   8.9174  12.3167   C.2       1 RES1   0.0000
   216 C72     14.9777   8.9174  14.4355   C.2       1 RES1   0.0000
   217 C73      4.5782   5.1097   0.0018   C.2       1 RES1   0.0000
   218 C74      4.3392   3.8077   0.0018   C.2       1 RES1   0.0000
   219 C75      4.3392   5.1097   8.9156   C.2       1 RES1   0.0000
   220 C76      4.5782   3.8077   8.9156   C.2       1 RES1   0.0000
   221 C77      0.0018   4.5782   5.1097   C.2       1 RES1   0.0000
   222 C78      0.0018   4.3392   3.8077   C.2       1 RES1   0.0000
   223 C79      8.9156   4.3392   5.1097   C.2       1 RES1   0.0000
   224 C80      8.9156   4.5782   3.8077   C.2       1 RES1   0.0000
   225 C81      5.1097   0.0018   4.5782   C.2       1 RES1   0.0000
   226 C82      3.8077   0.0018   4.3392   C.2       1 RES1   0.0000
   227 C83      5.1097   8.9156   4.3392   C.2       1 RES1   0.0000
   228 C84      3.8077   8.9156   4.5782   C.2       1 RES1   0.0000
   229 C85     13.2566  12.7251  17.8330   C.2       1 RES1   0.0000
   230 C86     13.4956  14.0271  17.8330   C.2       1 RES1   0.0000
   231 C87     13.4956  12.7251   8.9192   C.2       1 RES1   0.0000
   232 C88     13.2566  14.0271   8.9192   C.2       1 RES1   0.0000
   233 C89     17.8330  13.2566  12.7251   C.2       1 RES1   0.0000
   234 C90     17.8330  13.4956  14.0271   C.2       1 RES1   0.0000
   235 C91      8.9192  13.4956  12.7251   C.2       1 RES1   0.0000
   236 C92      8.9192  13.2566  14.0271   C.2       1 RES1   0.0000
   237 C93     12.7251  17.8330  13.2566   C.2       1 RES1   0.0000
   238 C94     14.0271  17.8330  13.4956   C.2       1 RES1   0.0000
   239 C95     12.7251   8.9192  13.4956   C.2       1 RES1   0.0000
   240 C96     14.0271   8.9192  13.2566   C.2       1 RES1   0.0000
   241 H25      5.4503   5.4325   0.0018   H         1 RES1   0.0000
   242 H26      3.4671   3.4849   0.0018   H         1 RES1   0.0000
   243 H27      3.4671   5.4325   8.9156   H         1 RES1   0.0000
   244 H28      5.4503   3.4849   8.9156   H         1 RES1   0.0000
   245 H29      0.0018   5.4503   5.4325   H         1 RES1   0.0000
   246 H30      0.0018   3.4671   3.4849   H         1 RES1   0.0000
   247 H31      8.9156   3.4671   5.4325   H         1 RES1   0.0000
   248 H32      8.9156   5.4503   3.4849   H         1 RES1   0.0000
   249 H33      5.4325   0.0018   5.4503   H         1 RES1   0.0000
   250 H34      3.4849   0.0018   3.4671   H         1 RES1   0.0000
   251 H35      5.4325   8.9156   3.4671   H         1 RES1   0.0000
   252 H36      3.4849   8.9156   5.4503   H         1 RES1   0.0000
   253 H37     12.3845  12.4023  17.8330   H         1 RES1   0.0000
   254 H38     14.3677  14.3499  17.8330   H         1 RES1   0.0000
   255 H39     14.3677  12.4023   8.9192   H         1 RES1   0.0000
   256 H40     12.3845  14.3499   8.9192   H         1 RES1   0.0000
   257 H41     17.8330  12.3845  12.4023   H         1 RES1   0.0000
   258 H42     17.8330  14.3677  14.3499   H         1 RES1   0.0000
   259 H43      8.9192  14.3677  12.4023   H         1 RES1   0.0000
   260 H44      8.9192  12.3845  14.3499   H         1 RES1   0.0000
   261 H45     12.4023  17.8330  12.3845   H         1 RES1   0.0000
   262 H46     14.3499  17.8330  14.3677   H         1 RES1   0.0000
   263 H47     12.4023   8.9192  14.3677   H         1 RES1   0.0000
   264 H48     14.3499   8.9192  12.3845   H         1 RES1   0.0000
   265 O97      1.3644  10.5529  16.6809   O.3       1 RES1   0.0000
   266 O98      7.5530  16.1993  16.6809   O.3       1 RES1   0.0000
   267 O99      7.5530  10.5529  10.0713   O.3       1 RES1   0.0000
   268 O100     1.3644  16.1993  10.0713   O.3       1 RES1   0.0000
   269 O101    16.6809   1.3644  10.5529   O.3       1 RES1   0.0000
   270 O102    16.6809   7.5530  16.1993   O.3       1 RES1   0.0000
   271 O103    10.0713   7.5530  10.5529   O.3       1 RES1   0.0000
   272 O104    10.0713   1.3644  16.1993   O.3       1 RES1   0.0000
   273 O105    10.5529  16.6809   1.3644   O.3       1 RES1   0.0000
   274 O106    16.1993  16.6809   7.5530   O.3       1 RES1   0.0000
   275 O107    10.5529  10.0713   7.5530   O.3       1 RES1   0.0000
   276 O108    16.1993  10.0713   1.3644   O.3       1 RES1   0.0000
   277 O109    16.4704   7.2819   1.1539   O.3       1 RES1   0.0000
   278 O110    10.2818   1.6355   1.1539   O.3       1 RES1   0.0000
   279 O111    10.2818   7.2819   7.7635   O.3       1 RES1   0.0000
   280 O112    16.4704   1.6355   7.7635   O.3       1 RES1   0.0000
   281 O113     1.1539  16.4704   7.2819   O.3       1 RES1   0.0000
   282 O114     1.1539  10.2818   1.6355   O.3       1 RES1   0.0000
   283 O115     7.7635  10.2818   7.2819   O.3       1 RES1   0.0000
   284 O116     7.7635  16.4704   1.6355   O.3       1 RES1   0.0000
   285 O117     7.2819   1.1539  16.4704   O.3       1 RES1   0.0000
   286 O118     1.6355   1.1539  10.2818   O.3       1 RES1   0.0000
   287 O119     7.2819   7.7635  10.2818   O.3       1 RES1   0.0000
   288 O153     1.4000   7.5174   1.4000   O.3       1 RES1   0.0000
   289 O154     7.5174   1.4000   1.4000   O.3       1 RES1   0.0000
   290 O155     7.5174   7.5174   7.5174   O.3       1 RES1   0.0000
   291 O156     1.4000   1.4000   7.5174   O.3       1 RES1   0.0000
   292 O157    16.4348  10.3174  16.4348   O.3       1 RES1   0.0000
   293 O158    10.3174  16.4348  16.4348   O.3       1 RES1   0.0000
   294 O159    10.3174  10.3174  10.3174   O.3       1 RES1   0.0000
   295 O160    16.4348  16.4348  10.3174   O.3       1 RES1   0.0000
   296 Zr1      2.4585   9.1159  18.0467   Zr        1 RES1   0.0000
   297 Zr1     20.2933   9.1159   0.2119   Zr        1 RES1   0.0000
   298 Zr2      6.4589  -0.1985   0.2119   Zr        1 RES1   0.0000
   299 Zr2      6.4589  -0.1985  18.0467   Zr        1 RES1   0.0000
   300 Zr2      6.4589  17.6363  18.0467   Zr        1 RES1   0.0000
   301 Zr4      2.4585  -0.1985   8.7055   Zr        1 RES1   0.0000
   302 Zr4     20.2933  -0.1985   8.7055   Zr        1 RES1   0.0000
   303 Zr4     20.2933  17.6363   8.7055   Zr        1 RES1   0.0000
   304 Zr5      0.2119  20.2933   9.1159   Zr        1 RES1   0.0000
   305 Zr5     18.0467   2.4585   9.1159   Zr        1 RES1   0.0000
   306 Zr6      0.2119   6.4589  -0.1985   Zr        1 RES1   0.0000
   307 Zr6     18.0467   6.4589  -0.1985   Zr        1 RES1   0.0000
   308 Zr6     18.0467   6.4589  17.6363   Zr        1 RES1   0.0000
   309 Zr8      8.7055   2.4585  -0.1985   Zr        1 RES1   0.0000
   310 Zr8      8.7055  20.2933  -0.1985   Zr        1 RES1   0.0000
   311 Zr8      8.7055  20.2933  17.6363   Zr        1 RES1   0.0000
   312 Zr9      9.1159   0.2119  20.2933   Zr        1 RES1   0.0000
   313 Zr9      9.1159  18.0467   2.4585   Zr        1 RES1   0.0000
   314 Zr10    -0.1985   0.2119   6.4589   Zr        1 RES1   0.0000
   315 Zr10    -0.1985  18.0467   6.4589   Zr        1 RES1   0.0000
   316 Zr10    17.6363  18.0467   6.4589   Zr        1 RES1   0.0000
   317 Zr12    -0.1985   8.7055   2.4585   Zr        1 RES1   0.0000
   318 Zr12    -0.1985   8.7055  20.2933   Zr        1 RES1   0.0000
   319 Zr12    17.6363   8.7055  20.2933   Zr        1 RES1   0.0000
   320 Zr13    -2.4585   8.7189  17.6229   Zr        1 RES1   0.0000
   321 Zr13    15.3763   8.7189  -0.2119   Zr        1 RES1   0.0000
   322 Zr14    11.3759   0.1985  -0.2119   Zr        1 RES1   0.0000
   323 Zr14    11.3759  18.0333  -0.2119   Zr        1 RES1   0.0000
   324 Zr14    11.3759  18.0333  17.6229   Zr        1 RES1   0.0000
   325 Zr16    -2.4585   0.1985   9.1293   Zr        1 RES1   0.0000
   326 Zr16    -2.4585  18.0333   9.1293   Zr        1 RES1   0.0000
   327 Zr16    15.3763  18.0333   9.1293   Zr        1 RES1   0.0000
   328 Zr17    -0.2119  15.3763   8.7189   Zr        1 RES1   0.0000
   329 Zr17    17.6229  -2.4585   8.7189   Zr        1 RES1   0.0000
   330 Zr18    -0.2119  11.3759   0.1985   Zr        1 RES1   0.0000
   331 Zr18    -0.2119  11.3759  18.0333   Zr        1 RES1   0.0000
   332 Zr18    17.6229  11.3759  18.0333   Zr        1 RES1   0.0000
   333 Zr20     9.1293  -2.4585   0.1985   Zr        1 RES1   0.0000
   334 Zr20     9.1293  -2.4585  18.0333   Zr        1 RES1   0.0000
   335 Zr20     9.1293  15.3763  18.0333   Zr        1 RES1   0.0000
   336 Zr21     8.7189  -0.2119  15.3763   Zr        1 RES1   0.0000
   337 Zr21     8.7189  17.6229  -2.4585   Zr        1 RES1   0.0000
   338 Zr22     0.1985  -0.2119  11.3759   Zr        1 RES1   0.0000
   339 Zr22    18.0333  -0.2119  11.3759   Zr        1 RES1   0.0000
   340 Zr22    18.0333  17.6229  11.3759   Zr        1 RES1   0.0000
   341 Zr24     0.1985   9.1293  -2.4585   Zr        1 RES1   0.0000
   342 Zr24    18.0333   9.1293  -2.4585   Zr        1 RES1   0.0000
   343 Zr24    18.0333   9.1293  15.3763   Zr        1 RES1   0.0000
   344 O2       5.1899  19.4667   0.1427   O.co2     1 RES1   0.0000
   345 O4       3.7275  19.4667   8.7747   O.co2     1 RES1   0.0000
   346 O6       0.1427   5.1899  19.4667   O.co2     1 RES1   0.0000
   347 O8       8.7747   3.7275  19.4667   O.co2     1 RES1   0.0000
   348 O10     19.4667   0.1427   5.1899   O.co2     1 RES1   0.0000
   349 O12     19.4667   8.7747   3.7275   O.co2     1 RES1   0.0000
   350 O14     12.6449  -1.6319  17.6921   O.2       1 RES1   0.0000
   351 O16     14.1073  -1.6319   9.0601   O.2       1 RES1   0.0000
   352 O18     17.6921  12.6449  -1.6319   O.2       1 RES1   0.0000
   353 O20      9.0601  14.1073  -1.6319   O.2       1 RES1   0.0000
   354 O22     -1.6319  17.6921  12.6449   O.2       1 RES1   0.0000
   355 O24     -1.6319   9.0601  14.1073   O.2       1 RES1   0.0000
   356 O50      5.5359  17.7046   2.2525   O.co2     1 RES1   0.0000
   357 O52      3.3815  17.7046   6.6649   O.co2     1 RES1   0.0000
   358 O54      2.2525   5.5359  17.7046   O.co2     1 RES1   0.0000
   359 O56      6.6649   3.3815  17.7046   O.co2     1 RES1   0.0000
   360 O58     17.7046   2.2525   5.5359   O.co2     1 RES1   0.0000
   361 O60     17.7046   6.6649   3.3815   O.co2     1 RES1   0.0000
   362 O62     12.2989   0.1302  15.5823   O.2       1 RES1   0.0000
   363 O64     14.4533   0.1302  11.1699   O.2       1 RES1   0.0000
   364 O66     15.5823  12.2989   0.1302   O.2       1 RES1   0.0000
   365 O68     11.1699  14.4533   0.1302   O.2       1 RES1   0.0000
   366 O70      0.1302  15.5823  12.2989   O.2       1 RES1   0.0000
   367 O72      0.1302  11.1699  14.4533   O.2       1 RES1   0.0000
   368 O73      3.7239   9.3437  -1.6158   O.2       1 RES1   0.0000
   369 O74      5.1935  17.4085  -1.6158   O.2       1 RES1   0.0000
   370 O77     -1.6158   3.7239   9.3437   O.2       1 RES1   0.0000
   371 O78     -1.6158   5.1935  17.4085   O.2       1 RES1   0.0000
   372 O81      9.3437  -1.6158   3.7239   O.2       1 RES1   0.0000
   373 O82     17.4085  -1.6158   5.1935   O.2       1 RES1   0.0000
   374 O85     14.1109   8.4911  19.4506   O.co2     1 RES1   0.0000
   375 O86     12.6413   0.4263  19.4506   O.co2     1 RES1   0.0000
   376 O89     19.4506  14.1109   8.4911   O.co2     1 RES1   0.0000
   377 O90     19.4506  12.6413   0.4263   O.co2     1 RES1   0.0000
   378 O93      8.4911  19.4506  14.1109   O.co2     1 RES1   0.0000
   379 O94      0.4263  19.4506  12.6413   O.co2     1 RES1   0.0000
   380 O97      1.3644  10.5529  -1.1539   O.2       1 RES1   0.0000
   381 O97     19.1992  10.5529  -1.1539   O.2       1 RES1   0.0000
   382 O98      7.5530  16.1993  -1.1539   O.2       1 RES1   0.0000
   383 O100    19.1992  16.1993  10.0713   O.2       1 RES1   0.0000
   384 O101    -1.1539   1.3644  10.5529   O.2       1 RES1   0.0000
   385 O101    -1.1539  19.1992  10.5529   O.2       1 RES1   0.0000
   386 O102    -1.1539   7.5530  16.1993   O.2       1 RES1   0.0000
   387 O104    10.0713  19.1992  16.1993   O.2       1 RES1   0.0000
   388 O105    10.5529  -1.1539   1.3644   O.2       1 RES1   0.0000
   389 O105    10.5529  -1.1539  19.1992   O.2       1 RES1   0.0000
   390 O106    16.1993  -1.1539   7.5530   O.2       1 RES1   0.0000
   391 O108    16.1993  10.0713  19.1992   O.2       1 RES1   0.0000
   392 O109    -1.3644   7.2819  18.9887   O.2       1 RES1   0.0000
   393 O109    16.4704   7.2819  18.9887   O.2       1 RES1   0.0000
   394 O110    10.2818   1.6355  18.9887   O.2       1 RES1   0.0000
   395 O112    -1.3644   1.6355   7.7635   O.2       1 RES1   0.0000
   396 O113    18.9887  -1.3644   7.2819   O.2       1 RES1   0.0000
   397 O113    18.9887  16.4704   7.2819   O.2       1 RES1   0.0000
   398 O114    18.9887  10.2818   1.6355   O.2       1 RES1   0.0000
   399 O116     7.7635  -1.3644   1.6355   O.2       1 RES1   0.0000
   400 O117     7.2819  18.9887  -1.3644   O.2       1 RES1   0.0000
   401 O117     7.2819  18.9887  16.4704   O.2       1 RES1   0.0000
   402 O118     1.6355  18.9887  10.2818   O.2       1 RES1   0.0000
   403 O120     1.6355   7.7635  -1.3644   O.2       1 RES1   0.0000
   404 O153     1.4000   7.5174  19.2348   O.2       1 RES1   0.0000
   405 O153    19.2348   7.5174   1.4000   O.2       1 RES1   0.0000
   406 O154     7.5174   1.4000  19.2348   O.2       1 RES1   0.0000
   407 O154     7.5174  19.2348   1.4000   O.2       1 RES1   0.0000
   408 O156     1.4000  19.2348   7.5174   O.2       1 RES1   0.0000
   409 O156    19.2348   1.4000   7.5174   O.2       1 RES1   0.0000
   410 O157    -1.4000  10.3174  16.4348   O.2       1 RES1   0.0000
   411 O157    16.4348  10.3174  -1.4000   O.2       1 RES1   0.0000
   412 O158    10.3174  -1.4000  16.4348   O.2       1 RES1   0.0000
   413 O158    10.3174  16.4348  -1.4000   O.2       1 RES1   0.0000
   414 O160    -1.4000  16.4348  10.3174   O.2       1 RES1   0.0000
   415 O160    16.4348  -1.4000  10.3174   O.2       1 RES1   0.0000
   416 Zr3      6.4589   9.1159  26.5403   Zr        1 RES1   0.0000
   417 Zr4      2.4585  17.6363  26.5403   Zr        1 RES1   0.0000
   418 Zr5      0.2119   2.4585  26.9507   Zr        1 RES1   0.0000
   419 Zr6      0.2119   6.4589  35.4711   Zr        1 RES1   0.0000
   420 Zr7      8.7055   6.4589  26.9507   Zr        1 RES1   0.0000
   421 Zr8      8.7055   2.4585  35.4711   Zr        1 RES1   0.0000
   422 Zr10    17.6363   0.2119  24.2937   Zr        1 RES1   0.0000
   423 Zr11     9.1159   8.7055  24.2937   Zr        1 RES1   0.0000
   424 Zr13    15.3763   8.7189  35.4577   Zr        1 RES1   0.0000
   425 Zr14    11.3759   0.1985  35.4577   Zr        1 RES1   0.0000
   426 Zr15    11.3759   8.7189  26.9641   Zr        1 RES1   0.0000
   427 Zr16    15.3763   0.1985  26.9641   Zr        1 RES1   0.0000
   428 Zr17    17.6229  15.3763  26.5537   Zr        1 RES1   0.0000
   429 Zr19     9.1293  11.3759  26.5537   Zr        1 RES1   0.0000
   430 Zr21     8.7189  17.6229  33.2111   Zr        1 RES1   0.0000
   431 Zr22     0.1985  17.6229  29.2107   Zr        1 RES1   0.0000
   432 Zr23     8.7189   9.1293  29.2107   Zr        1 RES1   0.0000
   433 Zr24     0.1985   9.1293  33.2111   Zr        1 RES1   0.0000
   434 O1       3.7275   7.2855  17.9775   O.co2     1 RES1   0.0000
   435 O2       5.1899   1.6319  17.9775   O.co2     1 RES1   0.0000
   436 O3       5.1899   7.2855  26.6095   O.co2     1 RES1   0.0000
   437 O4       3.7275   1.6319  26.6095   O.co2     1 RES1   0.0000
   438 O5       0.1427   3.7275  25.1203   O.co2     1 RES1   0.0000
   439 O7       8.7747   5.1899  25.1203   O.co2     1 RES1   0.0000
   440 O9       7.2855   0.1427  21.5623   O.co2     1 RES1   0.0000
   441 O10      1.6319   0.1427  23.0247   O.co2     1 RES1   0.0000
   442 O11      7.2855   8.7747  23.0247   O.co2     1 RES1   0.0000
   443 O12      1.6319   8.7747  21.5623   O.co2     1 RES1   0.0000
   444 O13     14.1073  10.5493  35.5269   O.co2     1 RES1   0.0000
   445 O14     12.6449  16.2029  35.5269   O.co2     1 RES1   0.0000
   446 O15     12.6449  10.5493  26.8949   O.co2     1 RES1   0.0000
   447 O16     14.1073  16.2029  26.8949   O.co2     1 RES1   0.0000
   448 O17     17.6921  14.1073  28.3841   O.co2     1 RES1   0.0000
   449 O18     17.6921  12.6449  34.0377   O.co2     1 RES1   0.0000
   450 O19      9.0601  12.6449  28.3841   O.co2     1 RES1   0.0000
   451 O20      9.0601  14.1073  34.0377   O.co2     1 RES1   0.0000
   452 O21     10.5493  17.6921  31.9421   O.co2     1 RES1   0.0000
   453 O22     16.2029  17.6921  30.4797   O.co2     1 RES1   0.0000
   454 O23     10.5493   9.0601  30.4797   O.co2     1 RES1   0.0000
   455 O24     16.2029   9.0601  31.9421   O.co2     1 RES1   0.0000
   456 O25      3.3957  11.1396  18.2735   O.co2     1 RES1   0.0000
   457 O26      5.5217  15.6126  18.2735   O.co2     1 RES1   0.0000
   458 O27      5.5217  11.1396  26.3135   O.co2     1 RES1   0.0000
   459 O28      3.3957  15.6126  26.3135   O.co2     1 RES1   0.0000
   460 O29      0.4387   3.3957  28.9744   O.co2     1 RES1   0.0000
   461 O30      0.4387   5.5217  33.4474   O.co2     1 RES1   0.0000
   462 O31      8.4787   5.5217  28.9744   O.co2     1 RES1   0.0000
   463 O32      8.4787   3.3957  33.4474   O.co2     1 RES1   0.0000
   464 O33     11.1396   0.4387  21.2305   O.co2     1 RES1   0.0000
   465 O34     15.6126   0.4387  23.3565   O.co2     1 RES1   0.0000
   466 O35     11.1396   8.4787  23.3565   O.co2     1 RES1   0.0000
   467 O36     15.6126   8.4787  21.2305   O.co2     1 RES1   0.0000
   468 O37     14.4391   6.6952  35.2309   O.co2     1 RES1   0.0000
   469 O38     12.3131   2.2222  35.2309   O.co2     1 RES1   0.0000
   470 O39     12.3131   6.6952  27.1909   O.co2     1 RES1   0.0000
   471 O40     14.4391   2.2222  27.1909   O.co2     1 RES1   0.0000
   472 O41     17.3961  14.4391  24.5300   O.co2     1 RES1   0.0000
   473 O42     17.3961  12.3131  20.0570   O.co2     1 RES1   0.0000
   474 O43      9.3561  12.3131  24.5300   O.co2     1 RES1   0.0000
   475 O44      9.3561  14.4391  20.0570   O.co2     1 RES1   0.0000
   476 O45      6.6952  17.3961  32.2739   O.co2     1 RES1   0.0000
   477 O46      2.2222  17.3961  30.1479   O.co2     1 RES1   0.0000
   478 O47      6.6952   9.3561  30.1479   O.co2     1 RES1   0.0000
   479 O48      2.2222   9.3561  32.2739   O.co2     1 RES1   0.0000
   480 O49      3.3815   9.0476  20.0873   O.co2     1 RES1   0.0000
   481 O50      5.5359  -0.1302  20.0873   O.co2     1 RES1   0.0000
   482 O51      5.5359   9.0476  24.4997   O.co2     1 RES1   0.0000
   483 O52      3.3815  -0.1302  24.4997   O.co2     1 RES1   0.0000
   484 O53      2.2525   3.3815  26.8824   O.co2     1 RES1   0.0000
   485 O55      6.6649   5.5359  26.8824   O.co2     1 RES1   0.0000
   486 O57      9.0476   2.2525  21.2163   O.co2     1 RES1   0.0000
   487 O58     -0.1302   2.2525  23.3707   O.co2     1 RES1   0.0000
   488 O59      9.0476   6.6649  23.3707   O.co2     1 RES1   0.0000
   489 O60     -0.1302   6.6649  21.2163   O.co2     1 RES1   0.0000
   490 O61     14.4533   8.7872  33.4171   O.co2     1 RES1   0.0000
   491 O62     12.2989  17.9650  33.4171   O.co2     1 RES1   0.0000
   492 O63     12.2989   8.7872  29.0047   O.co2     1 RES1   0.0000
   493 O64     14.4533  17.9650  29.0047   O.co2     1 RES1   0.0000
   494 O65     15.5823  14.4533  26.6220   O.co2     1 RES1   0.0000
   495 O66     15.5823  12.2989  35.7998   O.co2     1 RES1   0.0000
   496 O67     11.1699  12.2989  26.6220   O.co2     1 RES1   0.0000
   497 O68     11.1699  14.4533  35.7998   O.co2     1 RES1   0.0000
   498 O69      8.7872  15.5823  32.2881   O.co2     1 RES1   0.0000
   499 O70     17.9650  15.5823  30.1337   O.co2     1 RES1   0.0000
   500 O71      8.7872  11.1699  30.1337   O.co2     1 RES1   0.0000
   501 O72     17.9650  11.1699  32.2881   O.co2     1 RES1   0.0000
   502 O73      3.7239   9.3437  34.0538   O.co2     1 RES1   0.0000
   503 O74      5.1935  17.4085  34.0538   O.co2     1 RES1   0.0000
   504 O75      5.1935   9.3437  28.3680   O.co2     1 RES1   0.0000
   505 O76      3.7239  17.4085  28.3680   O.co2     1 RES1   0.0000
   506 O77     16.2190   3.7239  27.1785   O.co2     1 RES1   0.0000
   507 O78     16.2190   5.1935  35.2433   O.co2     1 RES1   0.0000
   508 O79     10.5332   5.1935  27.1785   O.co2     1 RES1   0.0000
   509 O80     10.5332   3.7239  35.2433   O.co2     1 RES1   0.0000
   510 O81      9.3437  16.2190  21.5587   O.co2     1 RES1   0.0000
   511 O82     17.4085  16.2190  23.0283   O.co2     1 RES1   0.0000
   512 O83      9.3437  10.5332  23.0283   O.co2     1 RES1   0.0000
   513 O84     17.4085  10.5332  21.5587   O.co2     1 RES1   0.0000
   514 O87     12.6413   8.4911  25.1364   O.co2     1 RES1   0.0000
   515 O88     14.1109   0.4263  25.1364   O.co2     1 RES1   0.0000
   516 O89      1.6158  14.1109  26.3259   O.co2     1 RES1   0.0000
   517 O90      1.6158  12.6413  18.2611   O.co2     1 RES1   0.0000
   518 O91      7.3016  12.6413  26.3259   O.co2     1 RES1   0.0000
   519 O92      7.3016  14.1109  18.2611   O.co2     1 RES1   0.0000
   520 O93      8.4911   1.6158  31.9457   O.co2     1 RES1   0.0000
   521 O94      0.4263   1.6158  30.4761   O.co2     1 RES1   0.0000
   522 O95      8.4911   7.3016  30.4761   O.co2     1 RES1   0.0000
   523 O96      0.4263   7.3016  31.9457   O.co2     1 RES1   0.0000
   524 C1       2.8607  12.2900  18.2628   C.2       1 RES1   0.0000
   525 C2       6.0567  14.4622  18.2628   C.2       1 RES1   0.0000
   526 C3       6.0567  12.2900  26.3242   C.2       1 RES1   0.0000
   527 C4       2.8607  14.4622  26.3242   C.2       1 RES1   0.0000
   528 C5       0.4280   2.8607  30.1248   C.2       1 RES1   0.0000
   529 C6       0.4280   6.0567  32.2970   C.2       1 RES1   0.0000
   530 C7       8.4894   6.0567  30.1248   C.2       1 RES1   0.0000
   531 C8       8.4894   2.8607  32.2970   C.2       1 RES1   0.0000
   532 C9      12.2900   0.4280  20.6955   C.2       1 RES1   0.0000
   533 C10     14.4622   0.4280  23.8915   C.2       1 RES1   0.0000
   534 C11     12.2900   8.4894  23.8915   C.2       1 RES1   0.0000
   535 C12     14.4622   8.4894  20.6955   C.2       1 RES1   0.0000
   536 C13     14.9741   5.5448  35.2416   C.2       1 RES1   0.0000
   537 C14     11.7781   3.3726  35.2416   C.2       1 RES1   0.0000
   538 C15     11.7781   5.5448  27.1802   C.2       1 RES1   0.0000
   539 C16     14.9741   3.3726  27.1802   C.2       1 RES1   0.0000
   540 C17     17.4068  14.9741  23.3796   C.2       1 RES1   0.0000
   541 C18     17.4068  11.7781  21.2074   C.2       1 RES1   0.0000
   542 C19      9.3454  11.7781  23.3796   C.2       1 RES1   0.0000
   543 C20      9.3454  14.9741  21.2074   C.2       1 RES1   0.0000
   544 C21      5.5448  17.4068  32.8089   C.2       1 RES1   0.0000
   545 C22      3.3726  17.4068  29.6129   C.2       1 RES1   0.0000
   546 C23      5.5448   9.3454  29.6129   C.2       1 RES1   0.0000
   547 C24      3.3726   9.3454  32.8089   C.2       1 RES1   0.0000
   548 C25      3.8202  13.4742  18.2682   C.2       1 RES1   0.0000
   549 C26      5.0972  13.2780  18.2682   C.2       1 RES1   0.0000
   550 C27      5.0972  13.4742  26.3188   C.2       1 RES1   0.0000
   551 C28      3.8202  13.2780  26.3188   C.2       1 RES1   0.0000
   552 C29      0.4334   3.8202  31.3090   C.2       1 RES1   0.0000
   553 C30      0.4334   5.0972  31.1128   C.2       1 RES1   0.0000
   554 C31      8.4840   5.0972  31.3090   C.2       1 RES1   0.0000
   555 C32      8.4840   3.8202  31.1128   C.2       1 RES1   0.0000
   556 C33     13.4742   0.4334  21.6550   C.2       1 RES1   0.0000
   557 C34     13.2780   0.4334  22.9320   C.2       1 RES1   0.0000
   558 C35     13.4742   8.4840  22.9320   C.2       1 RES1   0.0000
   559 C36     13.2780   8.4840  21.6550   C.2       1 RES1   0.0000
   560 C37     14.0146   4.3606  35.2362   C.2       1 RES1   0.0000
   561 C38     12.7376   4.5568  35.2362   C.2       1 RES1   0.0000
   562 C39     12.7376   4.3606  27.1856   C.2       1 RES1   0.0000
   563 C40     14.0146   4.5568  27.1856   C.2       1 RES1   0.0000
   564 C41     17.4014  14.0146  22.1954   C.2       1 RES1   0.0000
   565 C42     17.4014  12.7376  22.3916   C.2       1 RES1   0.0000
   566 C43      9.3508  12.7376  22.1954   C.2       1 RES1   0.0000
   567 C44      9.3508  14.0146  22.3916   C.2       1 RES1   0.0000
   568 C45      4.3606  17.4014  31.8494   C.2       1 RES1   0.0000
   569 C46      4.5568  17.4014  30.5724   C.2       1 RES1   0.0000
   570 C47      4.3606   9.3508  30.5724   C.2       1 RES1   0.0000
   571 C48      4.5568   9.3508  31.8494   C.2       1 RES1   0.0000
   572 H1       3.4867  14.3427  18.2700   H         1 RES1   0.0000
   573 H2       5.4307  12.4095  18.2700   H         1 RES1   0.0000
   574 H3       5.4307  14.3427  26.3170   H         1 RES1   0.0000
   575 H4       3.4867  12.4095  26.3170   H         1 RES1   0.0000
   576 H5       0.4352   3.4867  32.1775   H         1 RES1   0.0000
   577 H6       0.4352   5.4307  30.2443   H         1 RES1   0.0000
   578 H7       8.4822   5.4307  32.1775   H         1 RES1   0.0000
   579 H8       8.4822   3.4867  30.2443   H         1 RES1   0.0000
   580 H9      14.3427   0.4352  21.3215   H         1 RES1   0.0000
   581 H10     12.4095   0.4352  23.2655   H         1 RES1   0.0000
   582 H11     14.3427   8.4822  23.2655   H         1 RES1   0.0000
   583 H12     12.4095   8.4822  21.3215   H         1 RES1   0.0000
   584 H13     14.3481   3.4921  35.2344   H         1 RES1   0.0000
   585 H14     12.4041   5.4253  35.2344   H         1 RES1   0.0000
   586 H15     12.4041   3.4921  27.1874   H         1 RES1   0.0000
   587 H16     14.3481   5.4253  27.1874   H         1 RES1   0.0000
   588 H17     17.3996  14.3481  21.3269   H         1 RES1   0.0000
   589 H18     17.3996  12.4041  23.2601   H         1 RES1   0.0000
   590 H19      9.3526  12.4041  21.3269   H         1 RES1   0.0000
   591 H20      9.3526  14.3481  23.2601   H         1 RES1   0.0000
   592 H21      3.4921  17.3996  32.1829   H         1 RES1   0.0000
   593 H22      5.4253  17.3996  30.2389   H         1 RES1   0.0000
   594 H23      3.4921   9.3526  30.2389   H         1 RES1   0.0000
   595 H24      5.4253   9.3526  32.1829   H         1 RES1   0.0000
   596 C49      3.3993   6.0603  17.8348   C.2       1 RES1   0.0000
   597 C50      5.5181   2.8571  17.8348   C.2       1 RES1   0.0000
   598 C51      5.5181   6.0603  26.7522   C.2       1 RES1   0.0000
   599 C52      3.3993   2.8571  26.7522   C.2       1 RES1   0.0000
   600 C53      0.0000   3.3993  23.8951   C.2       1 RES1   0.0000
   601 C54      0.0000   5.5181  20.6919   C.2       1 RES1   0.0000
   602 C55      8.9174   5.5181  23.8951   C.2       1 RES1   0.0000
   603 C56      8.9174   3.3993  20.6919   C.2       1 RES1   0.0000
   604 C57      6.0603   0.0000  21.2341   C.2       1 RES1   0.0000
   605 C58      2.8571   0.0000  23.3529   C.2       1 RES1   0.0000
   606 C59      6.0603   8.9174  23.3529   C.2       1 RES1   0.0000
   607 C60      2.8571   8.9174  21.2341   C.2       1 RES1   0.0000
   608 C61     14.4355  11.7745  35.6696   C.2       1 RES1   0.0000
   609 C62     12.3167  14.9777  35.6696   C.2       1 RES1   0.0000
   610 C63     12.3167  11.7745  26.7522   C.2       1 RES1   0.0000
   611 C64     14.4355  14.9777  26.7522   C.2       1 RES1   0.0000
   612 C65     17.8348  14.4355  29.6093   C.2       1 RES1   0.0000
   613 C66     17.8348  12.3167  32.8125   C.2       1 RES1   0.0000
   614 C67      8.9174  12.3167  29.6093   C.2       1 RES1   0.0000
   615 C68      8.9174  14.4355  32.8125   C.2       1 RES1   0.0000
   616 C69     11.7745  17.8348  32.2703   C.2       1 RES1   0.0000
   617 C70     14.9777  17.8348  30.1515   C.2       1 RES1   0.0000
   618 C71     11.7745   8.9174  30.1515   C.2       1 RES1   0.0000
   619 C72     14.9777   8.9174  32.2703   C.2       1 RES1   0.0000
   620 C73      4.5782   5.1097  17.8366   C.2       1 RES1   0.0000
   621 C74      4.3392   3.8077  17.8366   C.2       1 RES1   0.0000
   622 C75      4.3392   5.1097  26.7504   C.2       1 RES1   0.0000
   623 C76      4.5782   3.8077  26.7504   C.2       1 RES1   0.0000
   624 C77      0.0018   4.5782  22.9445   C.2       1 RES1   0.0000
   625 C78      0.0018   4.3392  21.6425   C.2       1 RES1   0.0000
   626 C79      8.9156   4.3392  22.9445   C.2       1 RES1   0.0000
   627 C80      8.9156   4.5782  21.6425   C.2       1 RES1   0.0000
   628 C81      5.1097   0.0018  22.4130   C.2       1 RES1   0.0000
   629 C82      3.8077   0.0018  22.1740   C.2       1 RES1   0.0000
   630 C83      5.1097   8.9156  22.1740   C.2       1 RES1   0.0000
   631 C84      3.8077   8.9156  22.4130   C.2       1 RES1   0.0000
   632 C85     13.2566  12.7251  35.6678   C.2       1 RES1   0.0000
   633 C86     13.4956  14.0271  35.6678   C.2       1 RES1   0.0000
   634 C87     13.4956  12.7251  26.7540   C.2       1 RES1   0.0000
   635 C88     13.2566  14.0271  26.7540   C.2       1 RES1   0.0000
   636 C89     17.8330  13.2566  30.5599   C.2       1 RES1   0.0000
   637 C90     17.8330  13.4956  31.8619   C.2       1 RES1   0.0000
   638 C91      8.9192  13.4956  30.5599   C.2       1 RES1   0.0000
   639 C92      8.9192  13.2566  31.8619   C.2       1 RES1   0.0000
   640 C93     12.7251  17.8330  31.0914   C.2       1 RES1   0.0000
   641 C94     14.0271  17.8330  31.3304   C.2       1 RES1   0.0000
   642 C95     12.7251   8.9192  31.3304   C.2       1 RES1   0.0000
   643 C96     14.0271   8.9192  31.0914   C.2       1 RES1   0.0000
   644 H25      5.4503   5.4325  17.8366   H         1 RES1   0.0000
   645 H26      3.4671   3.4849  17.8366   H         1 RES1   0.0000
   646 H27      3.4671   5.4325  26.7504   H         1 RES1   0.0000
   647 H28      5.4503   3.4849  26.7504   H         1 RES1   0.0000
   648 H29      0.0018   5.4503  23.2673   H         1 RES1   0.0000
   649 H30      0.0018   3.4671  21.3197   H         1 RES1   0.0000
   650 H31      8.9156   3.4671  23.2673   H         1 RES1   0.0000
   651 H32      8.9156   5.4503  21.3197   H         1 RES1   0.0000
   652 H33      5.4325   0.0018  23.2851   H         1 RES1   0.0000
   653 H34      3.4849   0.0018  21.3019   H         1 RES1   0.0000
   654 H35      5.4325   8.9156  21.3019   H         1 RES1   0.0000
   655 H36      3.4849   8.9156  23.2851   H         1 RES1   0.0000
   656 H37     12.3845  12.4023  35.6678   H         1 RES1   0.0000
   657 H38     14.3677  14.3499  35.6678   H         1 RES1   0.0000
   658 H39     14.3677  12.4023  26.7540   H         1 RES1   0.0000
   659 H40     12.3845  14.3499  26.7540   H         1 RES1   0.0000
   660 H41     17.8330  12.3845  30.2371   H         1 RES1   0.0000
   661 H42     17.8330  14.3677  32.1847   H         1 RES1   0.0000
   662 H43      8.9192  14.3677  30.2371   H         1 RES1   0.0000
   663 H44      8.9192  12.3845  32.1847   H         1 RES1   0.0000
   664 H45     12.4023  17.8330  30.2193   H         1 RES1   0.0000
   665 H46     14.3499  17.8330  32.2025   H         1 RES1   0.0000
   666 H47     12.4023   8.9192  32.2025   H         1 RES1   0.0000
   667 H48     14.3499   8.9192  30.2193   H         1 RES1   0.0000
   668 O97      1.3644  10.5529  34.5157   O.3       1 RES1   0.0000
   669 O98      7.5530  16.1993  34.5157   O.3       1 RES1   0.0000
   670 O99      7.5530  10.5529  27.9061   O.3       1 RES1   0.0000
   671 O100     1.3644  16.1993  27.9061   O.3       1 RES1   0.0000
   672 O101    16.6809   1.3644  28.3877   O.3       1 RES1   0.0000
   673 O102    16.6809   7.5530  34.0341   O.3       1 RES1   0.0000
   674 O103    10.0713   7.5530  28.3877   O.3       1 RES1   0.0000
   675 O104    10.0713   1.3644  34.0341   O.3       1 RES1   0.0000
   676 O105    10.5529  16.6809  19.1992   O.3       1 RES1   0.0000
   677 O106    16.1993  16.6809  25.3878   O.3       1 RES1   0.0000
   678 O107    10.5529  10.0713  25.3878   O.3       1 RES1   0.0000
   679 O111    10.2818   7.2819  25.5983   O.3       1 RES1   0.0000
   680 O112    16.4704   1.6355  25.5983   O.3       1 RES1   0.0000
   681 O113     1.1539  16.4704  25.1167   O.3       1 RES1   0.0000
   682 O114     1.1539  10.2818  19.4703   O.3       1 RES1   0.0000
   683 O115     7.7635  10.2818  25.1167   O.3       1 RES1   0.0000
   684 O116     7.7635  16.4704  19.4703   O.3       1 RES1   0.0000
   685 O117     7.2819   1.1539  34.3052   O.3       1 RES1   0.0000
   686 O118     1.6355   1.1539  28.1166   O.3       1 RES1   0.0000
   687 O119     7.2819   7.7635  28.1166   O.3       1 RES1   0.0000
   688 O155     7.5174   7.5174  25.3522   O.3       1 RES1   0.0000
   689 O156     1.4000   1.4000  25.3522   O.3       1 RES1   0.0000
   690 O157    16.4348  10.3174  34.2696   O.3       1 RES1   0.0000
   691 O158    10.3174  16.4348  34.2696   O.3       1 RES1   0.0000
   692 O159    10.3174  10.3174  28.1522   O.3       1 RES1   0.0000
   693 O160    16.4348  16.4348  28.1522   O.3       1 RES1   0.0000
   694 Zr1      2.4585   9.1159  35.8815   Zr        1 RES1   0.0000
   695 Zr1     20.2933   9.1159  18.0467   Zr        1 RES1   0.0000
   696 Zr2      6.4589  -0.1985  35.8815   Zr        1 RES1   0.0000
   697 Zr2      6.4589  17.6363  35.8815   Zr        1 RES1   0.0000
   698 Zr4      2.4585  -0.1985  26.5403   Zr        1 RES1   0.0000
   699 Zr4     20.2933  -0.1985  26.5403   Zr        1 RES1   0.0000
   700 Zr4     20.2933  17.6363  26.5403   Zr        1 RES1   0.0000
   701 Zr5      0.2119  20.2933  26.9507   Zr        1 RES1   0.0000
   702 Zr5     18.0467   2.4585  26.9507   Zr        1 RES1   0.0000
   703 Zr6     18.0467   6.4589  35.4711   Zr        1 RES1   0.0000
   704 Zr8      8.7055  20.2933  35.4711   Zr        1 RES1   0.0000
   705 Zr9      9.1159   0.2119  38.1281   Zr        1 RES1   0.0000
   706 Zr9      9.1159  18.0467  20.2933   Zr        1 RES1   0.0000
   707 Zr10    -0.1985   0.2119  24.2937   Zr        1 RES1   0.0000
   708 Zr10    -0.1985  18.0467  24.2937   Zr        1 RES1   0.0000
   709 Zr10    17.6363  18.0467  24.2937   Zr        1 RES1   0.0000
   710 Zr12    -0.1985   8.7055  38.1281   Zr        1 RES1   0.0000
   711 Zr12    17.6363   8.7055  38.1281   Zr        1 RES1   0.0000
   712 Zr13    -2.4585   8.7189  35.4577   Zr        1 RES1   0.0000
   713 Zr14    11.3759  18.0333  35.4577   Zr        1 RES1   0.0000
   714 Zr16    -2.4585   0.1985  26.9641   Zr        1 RES1   0.0000
   715 Zr16    -2.4585  18.0333  26.9641   Zr        1 RES1   0.0000
   716 Zr16    15.3763  18.0333  26.9641   Zr        1 RES1   0.0000
   717 Zr17    -0.2119  15.3763  26.5537   Zr        1 RES1   0.0000
   718 Zr17    17.6229  -2.4585  26.5537   Zr        1 RES1   0.0000
   719 Zr18    -0.2119  11.3759  35.8681   Zr        1 RES1   0.0000
   720 Zr18    17.6229  11.3759  35.8681   Zr        1 RES1   0.0000
   721 Zr20     9.1293  -2.4585  35.8681   Zr        1 RES1   0.0000
   722 Zr20     9.1293  15.3763  35.8681   Zr        1 RES1   0.0000
   723 Zr21     8.7189  -0.2119  33.2111   Zr        1 RES1   0.0000
   724 Zr22     0.1985  -0.2119  29.2107   Zr        1 RES1   0.0000
   725 Zr22    18.0333  -0.2119  29.2107   Zr        1 RES1   0.0000
   726 Zr22    18.0333  17.6229  29.2107   Zr        1 RES1   0.0000
   727 Zr24    18.0333   9.1293  33.2111   Zr        1 RES1   0.0000
   728 O2       5.1899  19.4667  17.9775   O.co2     1 RES1   0.0000
   729 O4       3.7275  19.4667  26.6095   O.co2     1 RES1   0.0000
   730 O6       0.1427   5.1899  37.3015   O.2       1 RES1   0.0000
   731 O8       8.7747   3.7275  37.3015   O.2       1 RES1   0.0000
   732 O10     19.4667   0.1427  23.0247   O.co2     1 RES1   0.0000
   733 O12     19.4667   8.7747  21.5623   O.co2     1 RES1   0.0000
   734 O14     12.6449  -1.6319  35.5269   O.2       1 RES1   0.0000
   735 O16     14.1073  -1.6319  26.8949   O.2       1 RES1   0.0000
   736 O22     -1.6319  17.6921  30.4797   O.2       1 RES1   0.0000
   737 O24     -1.6319   9.0601  31.9421   O.2       1 RES1   0.0000
   738 O50      5.5359  17.7046  20.0873   O.co2     1 RES1   0.0000
   739 O52      3.3815  17.7046  24.4997   O.co2     1 RES1   0.0000
   740 O54      2.2525   5.5359  35.5394   O.2       1 RES1   0.0000
   741 O56      6.6649   3.3815  35.5394   O.2       1 RES1   0.0000
   742 O58     17.7046   2.2525  23.3707   O.co2     1 RES1   0.0000
   743 O60     17.7046   6.6649  21.2163   O.co2     1 RES1   0.0000
   744 O62     12.2989   0.1302  33.4171   O.2       1 RES1   0.0000
   745 O64     14.4533   0.1302  29.0047   O.2       1 RES1   0.0000
   746 O70      0.1302  15.5823  30.1337   O.2       1 RES1   0.0000
   747 O72      0.1302  11.1699  32.2881   O.2       1 RES1   0.0000
   748 O77     -1.6158   3.7239  27.1785   O.2       1 RES1   0.0000
   749 O78     -1.6158   5.1935  35.2433   O.2       1 RES1   0.0000
   750 O81      9.3437  -1.6158  21.5587   O.2       1 RES1   0.0000
   751 O82     17.4085  -1.6158  23.0283   O.2       1 RES1   0.0000
   752 O85     14.1109   8.4911  37.2854   O.2       1 RES1   0.0000
   753 O86     12.6413   0.4263  37.2854   O.2       1 RES1   0.0000
   754 O89     19.4506  14.1109  26.3259   O.co2     1 RES1   0.0000
   755 O90     19.4506  12.6413  18.2611   O.co2     1 RES1   0.0000
   756 O93      8.4911  19.4506  31.9457   O.co2     1 RES1   0.0000
   757 O94      0.4263  19.4506  30.4761   O.co2     1 RES1   0.0000
   758 O97     19.1992  10.5529  16.6809   O.2       1 RES1   0.0000
   759 O100    19.1992  16.1993  27.9061   O.2       1 RES1   0.0000
   760 O101    -1.1539   1.3644  28.3877   O.2       1 RES1   0.0000
   761 O101    -1.1539  19.1992  28.3877   O.2       1 RES1   0.0000
   762 O102    -1.1539   7.5530  34.0341   O.2       1 RES1   0.0000
   763 O104    10.0713  19.1992  34.0341   O.2       1 RES1   0.0000
   764 O105    10.5529  -1.1539  37.0340   O.2       1 RES1   0.0000
   765 O106    16.1993  -1.1539  25.3878   O.2       1 RES1   0.0000
   766 O108    16.1993  10.0713  37.0340   O.2       1 RES1   0.0000
   767 O109    -1.3644   7.2819  36.8235   O.2       1 RES1   0.0000
   768 O109    16.4704   7.2819  36.8235   O.2       1 RES1   0.0000
   769 O110    10.2818   1.6355  36.8235   O.2       1 RES1   0.0000
   770 O112    -1.3644   1.6355  25.5983   O.2       1 RES1   0.0000
   771 O113    18.9887  -1.3644  25.1167   O.2       1 RES1   0.0000
   772 O113    18.9887  16.4704  25.1167   O.2       1 RES1   0.0000
   773 O114    18.9887  10.2818  19.4703   O.2       1 RES1   0.0000
   774 O116     7.7635  -1.3644  19.4703   O.2       1 RES1   0.0000
   775 O117     7.2819  18.9887  34.3052   O.2       1 RES1   0.0000
   776 O118     1.6355  18.9887  28.1166   O.2       1 RES1   0.0000
   777 O120     1.6355   7.7635  16.4704   O.2       1 RES1   0.0000
   778 O153     1.4000   7.5174  37.0696   O.2       1 RES1   0.0000
   779 O153    19.2348   7.5174  19.2348   O.2       1 RES1   0.0000
   780 O154     7.5174   1.4000  37.0696   O.2       1 RES1   0.0000
   781 O154     7.5174  19.2348  19.2348   O.2       1 RES1   0.0000
   782 O156     1.4000  19.2348  25.3522   O.2       1 RES1   0.0000
   783 O156    19.2348   1.4000  25.3522   O.2       1 RES1   0.0000
   784 O157    -1.4000  10.3174  34.2696   O.2       1 RES1   0.0000
   785 O158    10.3174  -1.4000  34.2696   O.2       1 RES1   0.0000
   786 O160    -1.4000  16.4348  28.1522   O.2       1 RES1   0.0000
   787 O160    16.4348  -1.4000  28.1522   O.2       1 RES1   0.0000
   788 Zr1      2.4585  26.9507   0.2119   Zr        1 RES1   0.0000
   789 Zr2      6.4589  35.4711   0.2119   Zr        1 RES1   0.0000
   790 Zr3      6.4589  26.9507   8.7055   Zr        1 RES1   0.0000
   791 Zr4      2.4585  35.4711   8.7055   Zr        1 RES1   0.0000
   792 Zr6      0.2119  24.2937  17.6363   Zr        1 RES1   0.0000
   793 Zr7      8.7055  24.2937   9.1159   Zr        1 RES1   0.0000
   794 Zr11     9.1159  26.5403   6.4589   Zr        1 RES1   0.0000
   795 Zr12    17.6363  26.5403   2.4585   Zr        1 RES1   0.0000
   796 Zr13    15.3763  26.5537  17.6229   Zr        1 RES1   0.0000
   797 Zr15    11.3759  26.5537   9.1293   Zr        1 RES1   0.0000
   798 Zr17    17.6229  33.2111   8.7189   Zr        1 RES1   0.0000
   799 Zr18    17.6229  29.2107   0.1985   Zr        1 RES1   0.0000
   800 Zr19     9.1293  29.2107   8.7189   Zr        1 RES1   0.0000
   801 Zr20     9.1293  33.2111   0.1985   Zr        1 RES1   0.0000
   802 Zr21     8.7189  35.4577  15.3763   Zr        1 RES1   0.0000
   803 Zr22     0.1985  35.4577  11.3759   Zr        1 RES1   0.0000
   804 Zr23     8.7189  26.9641  11.3759   Zr        1 RES1   0.0000
   805 Zr24     0.1985  26.9641  15.3763   Zr        1 RES1   0.0000
   806 O1       3.7275  25.1203   0.1427   O.co2     1 RES1   0.0000
   807 O3       5.1899  25.1203   8.7747   O.co2     1 RES1   0.0000
   808 O5       0.1427  21.5623   7.2855   O.co2     1 RES1   0.0000
   809 O6       0.1427  23.0247   1.6319   O.co2     1 RES1   0.0000
   810 O7       8.7747  23.0247   7.2855   O.co2     1 RES1   0.0000
   811 O8       8.7747  21.5623   1.6319   O.co2     1 RES1   0.0000
   812 O9       7.2855  17.9775   3.7275   O.co2     1 RES1   0.0000
   813 O10      1.6319  17.9775   5.1899   O.co2     1 RES1   0.0000
   814 O11      7.2855  26.6095   5.1899   O.co2     1 RES1   0.0000
   815 O12      1.6319  26.6095   3.7275   O.co2     1 RES1   0.0000
   816 O13     14.1073  28.3841  17.6921   O.co2     1 RES1   0.0000
   817 O14     12.6449  34.0377  17.6921   O.co2     1 RES1   0.0000
   818 O15     12.6449  28.3841   9.0601   O.co2     1 RES1   0.0000
   819 O16     14.1073  34.0377   9.0601   O.co2     1 RES1   0.0000
   820 O17     17.6921  31.9421  10.5493   O.co2     1 RES1   0.0000
   821 O18     17.6921  30.4797  16.2029   O.co2     1 RES1   0.0000
   822 O19      9.0601  30.4797  10.5493   O.co2     1 RES1   0.0000
   823 O20      9.0601  31.9421  16.2029   O.co2     1 RES1   0.0000
   824 O21     10.5493  35.5269  14.1073   O.co2     1 RES1   0.0000
   825 O22     16.2029  35.5269  12.6449   O.co2     1 RES1   0.0000
   826 O23     10.5493  26.8949  12.6449   O.co2     1 RES1   0.0000
   827 O24     16.2029  26.8949  14.1073   O.co2     1 RES1   0.0000
   828 O25      3.3957  28.9744   0.4387   O.co2     1 RES1   0.0000
   829 O26      5.5217  33.4474   0.4387   O.co2     1 RES1   0.0000
   830 O27      5.5217  28.9744   8.4787   O.co2     1 RES1   0.0000
   831 O28      3.3957  33.4474   8.4787   O.co2     1 RES1   0.0000
   832 O29      0.4387  21.2305  11.1396   O.co2     1 RES1   0.0000
   833 O30      0.4387  23.3565  15.6126   O.co2     1 RES1   0.0000
   834 O31      8.4787  23.3565  11.1396   O.co2     1 RES1   0.0000
   835 O32      8.4787  21.2305  15.6126   O.co2     1 RES1   0.0000
   836 O33     11.1396  18.2735   3.3957   O.co2     1 RES1   0.0000
   837 O34     15.6126  18.2735   5.5217   O.co2     1 RES1   0.0000
   838 O35     11.1396  26.3135   5.5217   O.co2     1 RES1   0.0000
   839 O36     15.6126  26.3135   3.3957   O.co2     1 RES1   0.0000
   840 O37     14.4391  24.5300  17.3961   O.co2     1 RES1   0.0000
   841 O38     12.3131  20.0570  17.3961   O.co2     1 RES1   0.0000
   842 O39     12.3131  24.5300   9.3561   O.co2     1 RES1   0.0000
   843 O40     14.4391  20.0570   9.3561   O.co2     1 RES1   0.0000
   844 O41     17.3961  32.2739   6.6952   O.co2     1 RES1   0.0000
   845 O42     17.3961  30.1479   2.2222   O.co2     1 RES1   0.0000
   846 O43      9.3561  30.1479   6.6952   O.co2     1 RES1   0.0000
   847 O44      9.3561  32.2739   2.2222   O.co2     1 RES1   0.0000
   848 O45      6.6952  35.2309  14.4391   O.co2     1 RES1   0.0000
   849 O46      2.2222  35.2309  12.3131   O.co2     1 RES1   0.0000
   850 O47      6.6952  27.1909  12.3131   O.co2     1 RES1   0.0000
   851 O48      2.2222  27.1909  14.4391   O.co2     1 RES1   0.0000
   852 O49      3.3815  26.8824   2.2525   O.co2     1 RES1   0.0000
   853 O51      5.5359  26.8824   6.6649   O.co2     1 RES1   0.0000
   854 O53      2.2525  21.2163   9.0476   O.co2     1 RES1   0.0000
   855 O54      2.2525  23.3707  -0.1302   O.co2     1 RES1   0.0000
   856 O55      6.6649  23.3707   9.0476   O.co2     1 RES1   0.0000
   857 O56      6.6649  21.2163  -0.1302   O.co2     1 RES1   0.0000
   858 O57      9.0476  20.0873   3.3815   O.co2     1 RES1   0.0000
   859 O58     -0.1302  20.0873   5.5359   O.co2     1 RES1   0.0000
   860 O59      9.0476  24.4997   5.5359   O.co2     1 RES1   0.0000
   861 O60     -0.1302  24.4997   3.3815   O.co2     1 RES1   0.0000
   862 O61     14.4533  26.6220  15.5823   O.co2     1 RES1   0.0000
   863 O62     12.2989  35.7998  15.5823   O.co2     1 RES1   0.0000
   864 O63     12.2989  26.6220  11.1699   O.co2     1 RES1   0.0000
   865 O64     14.4533  35.7998  11.1699   O.co2     1 RES1   0.0000
   866 O65     15.5823  32.2881   8.7872   O.co2     1 RES1   0.0000
   867 O66     15.5823  30.1337  17.9650   O.co2     1 RES1   0.0000
   868 O67     11.1699  30.1337   8.7872   O.co2     1 RES1   0.0000
   869 O68     11.1699  32.2881  17.9650   O.co2     1 RES1   0.0000
   870 O69      8.7872  33.4171  14.4533   O.co2     1 RES1   0.0000
   871 O70     17.9650  33.4171  12.2989   O.co2     1 RES1   0.0000
   872 O71      8.7872  29.0047  12.2989   O.co2     1 RES1   0.0000
   873 O72     17.9650  29.0047  14.4533   O.co2     1 RES1   0.0000
   874 O73      3.7239  27.1785  16.2190   O.co2     1 RES1   0.0000
   875 O74      5.1935  35.2433  16.2190   O.co2     1 RES1   0.0000
   876 O75      5.1935  27.1785  10.5332   O.co2     1 RES1   0.0000
   877 O76      3.7239  35.2433  10.5332   O.co2     1 RES1   0.0000
   878 O77     16.2190  21.5587   9.3437   O.co2     1 RES1   0.0000
   879 O78     16.2190  23.0283  17.4085   O.co2     1 RES1   0.0000
   880 O79     10.5332  23.0283   9.3437   O.co2     1 RES1   0.0000
   881 O80     10.5332  21.5587  17.4085   O.co2     1 RES1   0.0000
   882 O81      9.3437  34.0538   3.7239   O.co2     1 RES1   0.0000
   883 O82     17.4085  34.0538   5.1935   O.co2     1 RES1   0.0000
   884 O83      9.3437  28.3680   5.1935   O.co2     1 RES1   0.0000
   885 O84     17.4085  28.3680   3.7239   O.co2     1 RES1   0.0000
   886 O85     14.1109  26.3259   1.6158   O.co2     1 RES1   0.0000
   887 O86     12.6413  18.2611   1.6158   O.co2     1 RES1   0.0000
   888 O87     12.6413  26.3259   7.3016   O.co2     1 RES1   0.0000
   889 O88     14.1109  18.2611   7.3016   O.co2     1 RES1   0.0000
   890 O89      1.6158  31.9457   8.4911   O.co2     1 RES1   0.0000
   891 O90      1.6158  30.4761   0.4263   O.co2     1 RES1   0.0000
   892 O91      7.3016  30.4761   8.4911   O.co2     1 RES1   0.0000
   893 O92      7.3016  31.9457   0.4263   O.co2     1 RES1   0.0000
   894 O95      8.4911  25.1364  12.6413   O.co2     1 RES1   0.0000
   895 O96      0.4263  25.1364  14.1109   O.co2     1 RES1   0.0000
   896 C1       2.8607  30.1248   0.4280   C.2       1 RES1   0.0000
   897 C2       6.0567  32.2970   0.4280   C.2       1 RES1   0.0000
   898 C3       6.0567  30.1248   8.4894   C.2       1 RES1   0.0000
   899 C4       2.8607  32.2970   8.4894   C.2       1 RES1   0.0000
   900 C5       0.4280  20.6955  12.2900   C.2       1 RES1   0.0000
   901 C6       0.4280  23.8915  14.4622   C.2       1 RES1   0.0000
   902 C7       8.4894  23.8915  12.2900   C.2       1 RES1   0.0000
   903 C8       8.4894  20.6955  14.4622   C.2       1 RES1   0.0000
   904 C9      12.2900  18.2628   2.8607   C.2       1 RES1   0.0000
   905 C10     14.4622  18.2628   6.0567   C.2       1 RES1   0.0000
   906 C11     12.2900  26.3242   6.0567   C.2       1 RES1   0.0000
   907 C12     14.4622  26.3242   2.8607   C.2       1 RES1   0.0000
   908 C13     14.9741  23.3796  17.4068   C.2       1 RES1   0.0000
   909 C14     11.7781  21.2074  17.4068   C.2       1 RES1   0.0000
   910 C15     11.7781  23.3796   9.3454   C.2       1 RES1   0.0000
   911 C16     14.9741  21.2074   9.3454   C.2       1 RES1   0.0000
   912 C17     17.4068  32.8089   5.5448   C.2       1 RES1   0.0000
   913 C18     17.4068  29.6129   3.3726   C.2       1 RES1   0.0000
   914 C19      9.3454  29.6129   5.5448   C.2       1 RES1   0.0000
   915 C20      9.3454  32.8089   3.3726   C.2       1 RES1   0.0000
   916 C21      5.5448  35.2416  14.9741   C.2       1 RES1   0.0000
   917 C22      3.3726  35.2416  11.7781   C.2       1 RES1   0.0000
   918 C23      5.5448  27.1802  11.7781   C.2       1 RES1   0.0000
   919 C24      3.3726  27.1802  14.9741   C.2       1 RES1   0.0000
   920 C25      3.8202  31.3090   0.4334   C.2       1 RES1   0.0000
   921 C26      5.0972  31.1128   0.4334   C.2       1 RES1   0.0000
   922 C27      5.0972  31.3090   8.4840   C.2       1 RES1   0.0000
   923 C28      3.8202  31.1128   8.4840   C.2       1 RES1   0.0000
   924 C29      0.4334  21.6550  13.4742   C.2       1 RES1   0.0000
   925 C30      0.4334  22.9320  13.2780   C.2       1 RES1   0.0000
   926 C31      8.4840  22.9320  13.4742   C.2       1 RES1   0.0000
   927 C32      8.4840  21.6550  13.2780   C.2       1 RES1   0.0000
   928 C33     13.4742  18.2682   3.8202   C.2       1 RES1   0.0000
   929 C34     13.2780  18.2682   5.0972   C.2       1 RES1   0.0000
   930 C35     13.4742  26.3188   5.0972   C.2       1 RES1   0.0000
   931 C36     13.2780  26.3188   3.8202   C.2       1 RES1   0.0000
   932 C37     14.0146  22.1954  17.4014   C.2       1 RES1   0.0000
   933 C38     12.7376  22.3916  17.4014   C.2       1 RES1   0.0000
   934 C39     12.7376  22.1954   9.3508   C.2       1 RES1   0.0000
   935 C40     14.0146  22.3916   9.3508   C.2       1 RES1   0.0000
   936 C41     17.4014  31.8494   4.3606   C.2       1 RES1   0.0000
   937 C42     17.4014  30.5724   4.5568   C.2       1 RES1   0.0000
   938 C43      9.3508  30.5724   4.3606   C.2       1 RES1   0.0000
   939 C44      9.3508  31.8494   4.5568   C.2       1 RES1   0.0000
   940 C45      4.3606  35.2362  14.0146   C.2       1 RES1   0.0000
   941 C46      4.5568  35.2362  12.7376   C.2       1 RES1   0.0000
   942 C47      4.3606  27.1856  12.7376   C.2       1 RES1   0.0000
   943 C48      4.5568  27.1856  14.0146   C.2       1 RES1   0.0000
   944 H1       3.4867  32.1775   0.4352   H         1 RES1   0.0000
   945 H2       5.4307  30.2443   0.4352   H         1 RES1   0.0000
   946 H3       5.4307  32.1775   8.4822   H         1 RES1   0.0000
   947 H4       3.4867  30.2443   8.4822   H         1 RES1   0.0000
   948 H5       0.4352  21.3215  14.3427   H         1 RES1   0.0000
   949 H6       0.4352  23.2655  12.4095   H         1 RES1   0.0000
   950 H7       8.4822  23.2655  14.3427   H         1 RES1   0.0000
   951 H8       8.4822  21.3215  12.4095   H         1 RES1   0.0000
   952 H9      14.3427  18.2700   3.4867   H         1 RES1   0.0000
   953 H10     12.4095  18.2700   5.4307   H         1 RES1   0.0000
   954 H11     14.3427  26.3170   5.4307   H         1 RES1   0.0000
   955 H12     12.4095  26.3170   3.4867   H         1 RES1   0.0000
   956 H13     14.3481  21.3269  17.3996   H         1 RES1   0.0000
   957 H14     12.4041  23.2601  17.3996   H         1 RES1   0.0000
   958 H15     12.4041  21.3269   9.3526   H         1 RES1   0.0000
   959 H16     14.3481  23.2601   9.3526   H         1 RES1   0.0000
   960 H17     17.3996  32.1829   3.4921   H         1 RES1   0.0000
   961 H18     17.3996  30.2389   5.4253   H         1 RES1   0.0000
   962 H19      9.3526  30.2389   3.4921   H         1 RES1   0.0000
   963 H20      9.3526  32.1829   5.4253   H         1 RES1   0.0000
   964 H21      3.4921  35.2344  14.3481   H         1 RES1   0.0000
   965 H22      5.4253  35.2344  12.4041   H         1 RES1   0.0000
   966 H23      3.4921  27.1874  12.4041   H         1 RES1   0.0000
   967 H24      5.4253  27.1874  14.3481   H         1 RES1   0.0000
   968 C49      3.3993  23.8951   0.0000   C.2       1 RES1   0.0000
   969 C50      5.5181  20.6919   0.0000   C.2       1 RES1   0.0000
   970 C51      5.5181  23.8951   8.9174   C.2       1 RES1   0.0000
   971 C52      3.3993  20.6919   8.9174   C.2       1 RES1   0.0000
   972 C53      0.0000  21.2341   6.0603   C.2       1 RES1   0.0000
   973 C54      0.0000  23.3529   2.8571   C.2       1 RES1   0.0000
   974 C55      8.9174  23.3529   6.0603   C.2       1 RES1   0.0000
   975 C56      8.9174  21.2341   2.8571   C.2       1 RES1   0.0000
   976 C57      6.0603  17.8348   3.3993   C.2       1 RES1   0.0000
   977 C58      2.8571  17.8348   5.5181   C.2       1 RES1   0.0000
   978 C59      6.0603  26.7522   5.5181   C.2       1 RES1   0.0000
   979 C60      2.8571  26.7522   3.3993   C.2       1 RES1   0.0000
   980 C61     14.4355  29.6093  17.8348   C.2       1 RES1   0.0000
   981 C62     12.3167  32.8125  17.8348   C.2       1 RES1   0.0000
   982 C63     12.3167  29.6093   8.9174   C.2       1 RES1   0.0000
   983 C64     14.4355  32.8125   8.9174   C.2       1 RES1   0.0000
   984 C65     17.8348  32.2703  11.7745   C.2       1 RES1   0.0000
   985 C66     17.8348  30.1515  14.9777   C.2       1 RES1   0.0000
   986 C67      8.9174  30.1515  11.7745   C.2       1 RES1   0.0000
   987 C68      8.9174  32.2703  14.9777   C.2       1 RES1   0.0000
   988 C69     11.7745  35.6696  14.4355   C.2       1 RES1   0.0000
   989 C70     14.9777  35.6696  12.3167   C.2       1 RES1   0.0000
   990 C71     11.7745  26.7522  12.3167   C.2       1 RES1   0.0000
   991 C72     14.9777  26.7522  14.4355   C.2       1 RES1   0.0000
   992 C73      4.5782  22.9445   0.0018   C.2       1 RES1   0.0000
   993 C74      4.3392  21.6425   0.0018   C.2       1 RES1   0.0000
   994 C75      4.3392  22.9445   8.9156   C.2       1 RES1   0.0000
   995 C76      4.5782  21.6425   8.9156   C.2       1 RES1   0.0000
   996 C77      0.0018  22.4130   5.1097   C.2       1 RES1   0.0000
   997 C78      0.0018  22.1740   3.8077   C.2       1 RES1   0.0000
   998 C79      8.9156  22.1740   5.1097   C.2       1 RES1   0.0000
   999 C80      8.9156  22.4130   3.8077   C.2       1 RES1   0.0000
  1000 C81      5.1097  17.8366   4.5782   C.2       1 RES1   0.0000
  1001 C82      3.8077  17.8366   4.3392   C.2       1 RES1   0.0000
  1002 C83      5.1097  26.7504   4.3392   C.2       1 RES1   0.0000
  1003 C84      3.8077  26.7504   4.5782   C.2       1 RES1   0.0000
  1004 C85     13.2566  30.5599  17.8330   C.2       1 RES1   0.0000
  1005 C86     13.4956  31.8619  17.8330   C.2       1 RES1   0.0000
  1006 C87     13.4956  30.5599   8.9192   C.2       1 RES1   0.0000
  1007 C88     13.2566  31.8619   8.9192   C.2       1 RES1   0.0000
  1008 C89     17.8330  31.0914  12.7251   C.2       1 RES1   0.0000
  1009 C90     17.8330  31.3304  14.0271   C.2       1 RES1   0.0000
  1010 C91      8.9192  31.3304  12.7251   C.2       1 RES1   0.0000
  1011 C92      8.9192  31.0914  14.0271   C.2       1 RES1   0.0000
  1012 C93     12.7251  35.6678  13.2566   C.2       1 RES1   0.0000
  1013 C94     14.0271  35.6678  13.4956   C.2       1 RES1   0.0000
  1014 C95     12.7251  26.7540  13.4956   C.2       1 RES1   0.0000
  1015 C96     14.0271  26.7540  13.2566   C.2       1 RES1   0.0000
  1016 H25      5.4503  23.2673   0.0018   H         1 RES1   0.0000
  1017 H26      3.4671  21.3197   0.0018   H         1 RES1   0.0000
  1018 H27      3.4671  23.2673   8.9156   H         1 RES1   0.0000
  1019 H28      5.4503  21.3197   8.9156   H         1 RES1   0.0000
  1020 H29      0.0018  23.2851   5.4325   H         1 RES1   0.0000
  1021 H30      0.0018  21.3019   3.4849   H         1 RES1   0.0000
  1022 H31      8.9156  21.3019   5.4325   H         1 RES1   0.0000
  1023 H32      8.9156  23.2851   3.4849   H         1 RES1   0.0000
  1024 H33      5.4325  17.8366   5.4503   H         1 RES1   0.0000
  1025 H34      3.4849  17.8366   3.4671   H         1 RES1   0.0000
  1026 H35      5.4325  26.7504   3.4671   H         1 RES1   0.0000
  1027 H36      3.4849  26.7504   5.4503   H         1 RES1   0.0000
  1028 H37     12.3845  30.2371  17.8330   H         1 RES1   0.0000
  1029 H38     14.3677  32.1847  17.8330   H         1 RES1   0.0000
  1030 H39     14.3677  30.2371   8.9192   H         1 RES1   0.0000
  1031 H40     12.3845  32.1847   8.9192   H         1 RES1   0.0000
  1032 H41     17.8330  30.2193  12.4023   H         1 RES1   0.0000
  1033 H42     17.8330  32.2025  14.3499   H         1 RES1   0.0000
  1034 H43      8.9192  32.2025  12.4023   H         1 RES1   0.0000
  1035 H44      8.9192  30.2193  14.3499   H         1 RES1   0.0000
  1036 H45     12.4023  35.6678  12.3845   H         1 RES1   0.0000
  1037 H46     14.3499  35.6678  14.3677   H         1 RES1   0.0000
  1038 H47     12.4023  26.7540  14.3677   H         1 RES1   0.0000
  1039 H48     14.3499  26.7540  12.3845   H         1 RES1   0.0000
  1040 O97      1.3644  28.3877  16.6809   O.3       1 RES1   0.0000
  1041 O98      7.5530  34.0341  16.6809   O.3       1 RES1   0.0000
  1042 O99      7.5530  28.3877  10.0713   O.3       1 RES1   0.0000
  1043 O100     1.3644  34.0341  10.0713   O.3       1 RES1   0.0000
  1044 O101    16.6809  19.1992  10.5529   O.3       1 RES1   0.0000
  1045 O102    16.6809  25.3878  16.1993   O.3       1 RES1   0.0000
  1046 O103    10.0713  25.3878  10.5529   O.3       1 RES1   0.0000
  1047 O105    10.5529  34.5157   1.3644   O.3       1 RES1   0.0000
  1048 O106    16.1993  34.5157   7.5530   O.3       1 RES1   0.0000
  1049 O107    10.5529  27.9061   7.5530   O.3       1 RES1   0.0000
  1050 O108    16.1993  27.9061   1.3644   O.3       1 RES1   0.0000
  1051 O109    16.4704  25.1167   1.1539   O.3       1 RES1   0.0000
  1052 O110    10.2818  19.4703   1.1539   O.3       1 RES1   0.0000
  1053 O111    10.2818  25.1167   7.7635   O.3       1 RES1   0.0000
  1054 O112    16.4704  19.4703   7.7635   O.3       1 RES1   0.0000
  1055 O113     1.1539  34.3052   7.2819   O.3       1 RES1   0.0000
  1056 O114     1.1539  28.1166   1.6355   O.3       1 RES1   0.0000
  1057 O115     7.7635  28.1166   7.2819   O.3       1 RES1   0.0000
  1058 O116     7.7635  34.3052   1.6355   O.3       1 RES1   0.0000
  1059 O119     7.2819  25.5983  10.2818   O.3       1 RES1   0.0000
  1060 O153     1.4000  25.3522   1.4000   O.3       1 RES1   0.0000
  1061 O155     7.5174  25.3522   7.5174   O.3       1 RES1   0.0000
  1062 O157    16.4348  28.1522  16.4348   O.3       1 RES1   0.0000
  1063 O158    10.3174  34.2696  16.4348   O.3       1 RES1   0.0000
  1064 O159    10.3174  28.1522  10.3174   O.3       1 RES1   0.0000
  1065 O160    16.4348  34.2696  10.3174   O.3       1 RES1   0.0000
  1066 Zr1      2.4585  26.9507  18.0467   Zr        1 RES1   0.0000
  1067 Zr1     20.2933  26.9507   0.2119   Zr        1 RES1   0.0000
  1068 Zr2      6.4589  35.4711  18.0467   Zr        1 RES1   0.0000
  1069 Zr4     20.2933  35.4711   8.7055   Zr        1 RES1   0.0000
  1070 Zr5      0.2119  38.1281   9.1159   Zr        1 RES1   0.0000
  1071 Zr5     18.0467  20.2933   9.1159   Zr        1 RES1   0.0000
  1072 Zr6      0.2119  24.2937  -0.1985   Zr        1 RES1   0.0000
  1073 Zr6     18.0467  24.2937  -0.1985   Zr        1 RES1   0.0000
  1074 Zr6     18.0467  24.2937  17.6363   Zr        1 RES1   0.0000
  1075 Zr8      8.7055  38.1281  -0.1985   Zr        1 RES1   0.0000
  1076 Zr8      8.7055  38.1281  17.6363   Zr        1 RES1   0.0000
  1077 Zr9      9.1159  35.8815   2.4585   Zr        1 RES1   0.0000
  1078 Zr10    -0.1985  35.8815   6.4589   Zr        1 RES1   0.0000
  1079 Zr10    17.6363  35.8815   6.4589   Zr        1 RES1   0.0000
  1080 Zr12    -0.1985  26.5403   2.4585   Zr        1 RES1   0.0000
  1081 Zr12    -0.1985  26.5403  20.2933   Zr        1 RES1   0.0000
  1082 Zr12    17.6363  26.5403  20.2933   Zr        1 RES1   0.0000
  1083 Zr13    -2.4585  26.5537  17.6229   Zr        1 RES1   0.0000
  1084 Zr13    15.3763  26.5537  -0.2119   Zr        1 RES1   0.0000
  1085 Zr14    11.3759  35.8681  -0.2119   Zr        1 RES1   0.0000
  1086 Zr14    11.3759  35.8681  17.6229   Zr        1 RES1   0.0000
  1087 Zr16    -2.4585  35.8681   9.1293   Zr        1 RES1   0.0000
  1088 Zr16    15.3763  35.8681   9.1293   Zr        1 RES1   0.0000
  1089 Zr17    -0.2119  33.2111   8.7189   Zr        1 RES1   0.0000
  1090 Zr18    -0.2119  29.2107   0.1985   Zr        1 RES1   0.0000
  1091 Zr18    -0.2119  29.2107  18.0333   Zr        1 RES1   0.0000
  1092 Zr18    17.6229  29.2107  18.0333   Zr        1 RES1   0.0000
  1093 Zr20     9.1293  33.2111  18.0333   Zr        1 RES1   0.0000
  1094 Zr21     8.7189  35.4577  -2.4585   Zr        1 RES1   0.0000
  1095 Zr22    18.0333  35.4577  11.3759   Zr        1 RES1   0.0000
  1096 Zr24     0.1985  26.9641  -2.4585   Zr        1 RES1   0.0000
  1097 Zr24    18.0333  26.9641  -2.4585   Zr        1 RES1   0.0000
  1098 Zr24    18.0333  26.9641  15.3763   Zr        1 RES1   0.0000
  1099 O2       5.1899  37.3015   0.1427   O.2       1 RES1   0.0000
  1100 O4       3.7275  37.3015   8.7747   O.2       1 RES1   0.0000
  1101 O6       0.1427  23.0247  19.4667   O.co2     1 RES1   0.0000
  1102 O8       8.7747  21.5623  19.4667   O.co2     1 RES1   0.0000
  1103 O10     19.4667  17.9775   5.1899   O.co2     1 RES1   0.0000
  1104 O12     19.4667  26.6095   3.7275   O.co2     1 RES1   0.0000
  1105 O18     17.6921  30.4797  -1.6319   O.2       1 RES1   0.0000
  1106 O20      9.0601  31.9421  -1.6319   O.2       1 RES1   0.0000
  1107 O22     -1.6319  35.5269  12.6449   O.2       1 RES1   0.0000
  1108 O24     -1.6319  26.8949  14.1073   O.2       1 RES1   0.0000
  1109 O50      5.5359  35.5394   2.2525   O.2       1 RES1   0.0000
  1110 O52      3.3815  35.5394   6.6649   O.2       1 RES1   0.0000
  1111 O54      2.2525  23.3707  17.7046   O.co2     1 RES1   0.0000
  1112 O56      6.6649  21.2163  17.7046   O.co2     1 RES1   0.0000
  1113 O58     17.7046  20.0873   5.5359   O.co2     1 RES1   0.0000
  1114 O60     17.7046  24.4997   3.3815   O.co2     1 RES1   0.0000
  1115 O66     15.5823  30.1337   0.1302   O.2       1 RES1   0.0000
  1116 O68     11.1699  32.2881   0.1302   O.2       1 RES1   0.0000
  1117 O70      0.1302  33.4171  12.2989   O.2       1 RES1   0.0000
  1118 O72      0.1302  29.0047  14.4533   O.2       1 RES1   0.0000
  1119 O73      3.7239  27.1785  -1.6158   O.2       1 RES1   0.0000
  1120 O74      5.1935  35.2433  -1.6158   O.2       1 RES1   0.0000
  1121 O77     -1.6158  21.5587   9.3437   O.2       1 RES1   0.0000
  1122 O78     -1.6158  23.0283  17.4085   O.2       1 RES1   0.0000
  1123 O85     14.1109  26.3259  19.4506   O.co2     1 RES1   0.0000
  1124 O86     12.6413  18.2611  19.4506   O.co2     1 RES1   0.0000
  1125 O89     19.4506  31.9457   8.4911   O.co2     1 RES1   0.0000
  1126 O90     19.4506  30.4761   0.4263   O.co2     1 RES1   0.0000
  1127 O93      8.4911  37.2854  14.1109   O.2       1 RES1   0.0000
  1128 O94      0.4263  37.2854  12.6413   O.2       1 RES1   0.0000
  1129 O97      1.3644  28.3877  -1.1539   O.2       1 RES1   0.0000
  1130 O97     19.1992  28.3877  -1.1539   O.2       1 RES1   0.0000
  1131 O98      7.5530  34.0341  -1.1539   O.2       1 RES1   0.0000
  1132 O100    19.1992  34.0341  10.0713   O.2       1 RES1   0.0000
  1133 O101    -1.1539  37.0340  10.5529   O.2       1 RES1   0.0000
  1134 O102    -1.1539  25.3878  16.1993   O.2       1 RES1   0.0000
  1135 O104    10.0713  37.0340  16.1993   O.2       1 RES1   0.0000
  1136 O108    16.1993  27.9061  19.1992   O.2       1 RES1   0.0000
  1137 O109    -1.3644  25.1167  18.9887   O.2       1 RES1   0.0000
  1138 O109    16.4704  25.1167  18.9887   O.2       1 RES1   0.0000
  1139 O110    10.2818  19.4703  18.9887   O.2       1 RES1   0.0000
  1140 O112    -1.3644  19.4703   7.7635   O.2       1 RES1   0.0000
  1141 O113    18.9887  34.3052   7.2819   O.2       1 RES1   0.0000
  1142 O114    18.9887  28.1166   1.6355   O.2       1 RES1   0.0000
  1143 O117     7.2819  36.8235  -1.3644   O.2       1 RES1   0.0000
  1144 O117     7.2819  36.8235  16.4704   O.2       1 RES1   0.0000
  1145 O118     1.6355  36.8235  10.2818   O.2       1 RES1   0.0000
  1146 O120     1.6355  25.5983  -1.3644   O.2       1 RES1   0.0000
  1147 O153     1.4000  25.3522  19.2348   O.2       1 RES1   0.0000
  1148 O153    19.2348  25.3522   1.4000   O.2       1 RES1   0.0000
  1149 O154     7.5174  37.0696   1.4000   O.2       1 RES1   0.0000
  1150 O156     1.4000  37.0696   7.5174   O.2       1 RES1   0.0000
  1151 O156    19.2348  19.2348   7.5174   O.2       1 RES1   0.0000
  1152 O157    -1.4000  28.1522  16.4348   O.2       1 RES1   0.0000
  1153 O157    16.4348  28.1522  -1.4000   O.2       1 RES1   0.0000
  1154 O158    10.3174  34.2696  -1.4000   O.2       1 RES1   0.0000
  1155 O160    -1.4000  34.2696  10.3174   O.2       1 RES1   0.0000
  1156 Zr3      6.4589  26.9507  26.5403   Zr        1 RES1   0.0000
  1157 Zr4      2.4585  35.4711  26.5403   Zr        1 RES1   0.0000
  1158 Zr6      0.2119  24.2937  35.4711   Zr        1 RES1   0.0000
  1159 Zr7      8.7055  24.2937  26.9507   Zr        1 RES1   0.0000
  1160 Zr11     9.1159  26.5403  24.2937   Zr        1 RES1   0.0000
  1161 Zr13    15.3763  26.5537  35.4577   Zr        1 RES1   0.0000
  1162 Zr15    11.3759  26.5537  26.9641   Zr        1 RES1   0.0000
  1163 Zr17    17.6229  33.2111  26.5537   Zr        1 RES1   0.0000
  1164 Zr19     9.1293  29.2107  26.5537   Zr        1 RES1   0.0000
  1165 Zr21     8.7189  35.4577  33.2111   Zr        1 RES1   0.0000
  1166 Zr22     0.1985  35.4577  29.2107   Zr        1 RES1   0.0000
  1167 Zr23     8.7189  26.9641  29.2107   Zr        1 RES1   0.0000
  1168 Zr24     0.1985  26.9641  33.2111   Zr        1 RES1   0.0000
  1169 O1       3.7275  25.1203  17.9775   O.co2     1 RES1   0.0000
  1170 O3       5.1899  25.1203  26.6095   O.co2     1 RES1   0.0000
  1171 O5       0.1427  21.5623  25.1203   O.co2     1 RES1   0.0000
  1172 O7       8.7747  23.0247  25.1203   O.co2     1 RES1   0.0000
  1173 O9       7.2855  17.9775  21.5623   O.co2     1 RES1   0.0000
  1174 O10      1.6319  17.9775  23.0247   O.co2     1 RES1   0.0000
  1175 O11      7.2855  26.6095  23.0247   O.co2     1 RES1   0.0000
  1176 O12      1.6319  26.6095  21.5623   O.co2     1 RES1   0.0000
  1177 O13     14.1073  28.3841  35.5269   O.co2     1 RES1   0.0000
  1178 O14     12.6449  34.0377  35.5269   O.co2     1 RES1   0.0000
  1179 O15     12.6449  28.3841  26.8949   O.co2     1 RES1   0.0000
  1180 O16     14.1073  34.0377  26.8949   O.co2     1 RES1   0.0000
  1181 O17     17.6921  31.9421  28.3841   O.co2     1 RES1   0.0000
  1182 O18     17.6921  30.4797  34.0377   O.co2     1 RES1   0.0000
  1183 O19      9.0601  30.4797  28.3841   O.co2     1 RES1   0.0000
  1184 O20      9.0601  31.9421  34.0377   O.co2     1 RES1   0.0000
  1185 O21     10.5493  35.5269  31.9421   O.co2     1 RES1   0.0000
  1186 O22     16.2029  35.5269  30.4797   O.co2     1 RES1   0.0000
  1187 O23     10.5493  26.8949  30.4797   O.co2     1 RES1   0.0000
  1188 O24     16.2029  26.8949  31.9421   O.co2     1 RES1   0.0000
  1189 O25      3.3957  28.9744  18.2735   O.co2     1 RES1   0.0000
  1190 O26      5.5217  33.4474  18.2735   O.co2     1 RES1   0.0000
  1191 O27      5.5217  28.9744  26.3135   O.co2     1 RES1   0.0000
  1192 O28      3.3957  33.4474  26.3135   O.co2     1 RES1   0.0000
  1193 O29      0.4387  21.2305  28.9744   O.co2     1 RES1   0.0000
  1194 O30      0.4387  23.3565  33.4474   O.co2     1 RES1   0.0000
  1195 O31      8.4787  23.3565  28.9744   O.co2     1 RES1   0.0000
  1196 O32      8.4787  21.2305  33.4474   O.co2     1 RES1   0.0000
  1197 O33     11.1396  18.2735  21.2305   O.co2     1 RES1   0.0000
  1198 O34     15.6126  18.2735  23.3565   O.co2     1 RES1   0.0000
  1199 O35     11.1396  26.3135  23.3565   O.co2     1 RES1   0.0000
  1200 O36     15.6126  26.3135  21.2305   O.co2     1 RES1   0.0000
  1201 O37     14.4391  24.5300  35.2309   O.co2     1 RES1   0.0000
  1202 O38     12.3131  20.0570  35.2309   O.co2     1 RES1   0.0000
  1203 O39     12.3131  24.5300  27.1909   O.co2     1 RES1   0.0000
  1204 O40     14.4391  20.0570  27.1909   O.co2     1 RES1   0.0000
  1205 O41     17.3961  32.2739  24.5300   O.co2     1 RES1   0.0000
  1206 O42     17.3961  30.1479  20.0570   O.co2     1 RES1   0.0000
  1207 O43      9.3561  30.1479  24.5300   O.co2     1 RES1   0.0000
  1208 O44      9.3561  32.2739  20.0570   O.co2     1 RES1   0.0000
  1209 O45      6.6952  35.2309  32.2739   O.co2     1 RES1   0.0000
  1210 O46      2.2222  35.2309  30.1479   O.co2     1 RES1   0.0000
  1211 O47      6.6952  27.1909  30.1479   O.co2     1 RES1   0.0000
  1212 O48      2.2222  27.1909  32.2739   O.co2     1 RES1   0.0000
  1213 O49      3.3815  26.8824  20.0873   O.co2     1 RES1   0.0000
  1214 O51      5.5359  26.8824  24.4997   O.co2     1 RES1   0.0000
  1215 O53      2.2525  21.2163  26.8824   O.co2     1 RES1   0.0000
  1216 O55      6.6649  23.3707  26.8824   O.co2     1 RES1   0.0000
  1217 O57      9.0476  20.0873  21.2163   O.co2     1 RES1   0.0000
  1218 O58     -0.1302  20.0873  23.3707   O.co2     1 RES1   0.0000
  1219 O59      9.0476  24.4997  23.3707   O.co2     1 RES1   0.0000
  1220 O60     -0.1302  24.4997  21.2163   O.co2     1 RES1   0.0000
  1221 O61     14.4533  26.6220  33.4171   O.co2     1 RES1   0.0000
  1222 O62     12.2989  35.7998  33.4171   O.co2     1 RES1   0.0000
  1223 O63     12.2989  26.6220  29.0047   O.co2     1 RES1   0.0000
  1224 O64     14.4533  35.7998  29.0047   O.co2     1 RES1   0.0000
  1225 O65     15.5823  32.2881  26.6220   O.co2     1 RES1   0.0000
  1226 O66     15.5823  30.1337  35.7998   O.co2     1 RES1   0.0000
  1227 O67     11.1699  30.1337  26.6220   O.co2     1 RES1   0.0000
  1228 O68     11.1699  32.2881  35.7998   O.co2     1 RES1   0.0000
  1229 O69      8.7872  33.4171  32.2881   O.co2     1 RES1   0.0000
  1230 O70     17.9650  33.4171  30.1337   O.co2     1 RES1   0.0000
  1231 O71      8.7872  29.0047  30.1337   O.co2     1 RES1   0.0000
  1232 O72     17.9650  29.0047  32.2881   O.co2     1 RES1   0.0000
  1233 O73      3.7239  27.1785  34.0538   O.co2     1 RES1   0.0000
  1234 O74      5.1935  35.2433  34.0538   O.co2     1 RES1   0.0000
  1235 O75      5.1935  27.1785  28.3680   O.co2     1 RES1   0.0000
  1236 O76      3.7239  35.2433  28.3680   O.co2     1 RES1   0.0000
  1237 O77     16.2190  21.5587  27.1785   O.co2     1 RES1   0.0000
  1238 O78     16.2190  23.0283  35.2433   O.co2     1 RES1   0.0000
  1239 O79     10.5332  23.0283  27.1785   O.co2     1 RES1   0.0000
  1240 O80     10.5332  21.5587  35.2433   O.co2     1 RES1   0.0000
  1241 O81      9.3437  34.0538  21.5587   O.co2     1 RES1   0.0000
  1242 O82     17.4085  34.0538  23.0283   O.co2     1 RES1   0.0000
  1243 O83      9.3437  28.3680  23.0283   O.co2     1 RES1   0.0000
  1244 O84     17.4085  28.3680  21.5587   O.co2     1 RES1   0.0000
  1245 O87     12.6413  26.3259  25.1364   O.co2     1 RES1   0.0000
  1246 O88     14.1109  18.2611  25.1364   O.co2     1 RES1   0.0000
  1247 O89      1.6158  31.9457  26.3259   O.co2     1 RES1   0.0000
  1248 O90      1.6158  30.4761  18.2611   O.co2     1 RES1   0.0000
  1249 O91      7.3016  30.4761  26.3259   O.co2     1 RES1   0.0000
  1250 O92      7.3016  31.9457  18.2611   O.co2     1 RES1   0.0000
  1251 O95      8.4911  25.1364  30.4761   O.co2     1 RES1   0.0000
  1252 O96      0.4263  25.1364  31.9457   O.co2     1 RES1   0.0000
  1253 C1       2.8607  30.1248  18.2628   C.2       1 RES1   0.0000
  1254 C2       6.0567  32.2970  18.2628   C.2       1 RES1   0.0000
  1255 C3       6.0567  30.1248  26.3242   C.2       1 RES1   0.0000
  1256 C4       2.8607  32.2970  26.3242   C.2       1 RES1   0.0000
  1257 C5       0.4280  20.6955  30.1248   C.2       1 RES1   0.0000
  1258 C6       0.4280  23.8915  32.2970   C.2       1 RES1   0.0000
  1259 C7       8.4894  23.8915  30.1248   C.2       1 RES1   0.0000
  1260 C8       8.4894  20.6955  32.2970   C.2       1 RES1   0.0000
  1261 C9      12.2900  18.2628  20.6955   C.2       1 RES1   0.0000
  1262 C10     14.4622  18.2628  23.8915   C.2       1 RES1   0.0000
  1263 C11     12.2900  26.3242  23.8915   C.2       1 RES1   0.0000
  1264 C12     14.4622  26.3242  20.6955   C.2       1 RES1   0.0000
  1265 C13     14.9741  23.3796  35.2416   C.2       1 RES1   0.0000
  1266 C14     11.7781  21.2074  35.2416   C.2       1 RES1   0.0000
  1267 C15     11.7781  23.3796  27.1802   C.2       1 RES1   0.0000
  1268 C16     14.9741  21.2074  27.1802   C.2       1 RES1   0.0000
  1269 C17     17.4068  32.8089  23.3796   C.2       1 RES1   0.0000
  1270 C18     17.4068  29.6129  21.2074   C.2       1 RES1   0.0000
  1271 C19      9.3454  29.6129  23.3796   C.2       1 RES1   0.0000
  1272 C20      9.3454  32.8089  21.2074   C.2       1 RES1   0.0000
  1273 C21      5.5448  35.2416  32.8089   C.2       1 RES1   0.0000
  1274 C22      3.3726  35.2416  29.6129   C.2       1 RES1   0.0000
  1275 C23      5.5448  27.1802  29.6129   C.2       1 RES1   0.0000
  1276 C24      3.3726  27.1802  32.8089   C.2       1 RES1   0.0000
  1277 C25      3.8202  31.3090  18.2682   C.2       1 RES1   0.0000
  1278 C26      5.0972  31.1128  18.2682   C.2       1 RES1   0.0000
  1279 C27      5.0972  31.3090  26.3188   C.2       1 RES1   0.0000
  1280 C28      3.8202  31.1128  26.3188   C.2       1 RES1   0.0000
  1281 C29      0.4334  21.6550  31.3090   C.2       1 RES1   0.0000
  1282 C30      0.4334  22.9320  31.1128   C.2       1 RES1   0.0000
  1283 C31      8.4840  22.9320  31.3090   C.2       1 RES1   0.0000
  1284 C32      8.4840  21.6550  31.1128   C.2       1 RES1   0.0000
  1285 C33     13.4742  18.2682  21.6550   C.2       1 RES1   0.0000
  1286 C34     13.2780  18.2682  22.9320   C.2       1 RES1   0.0000
  1287 C35     13.4742  26.3188  22.9320   C.2       1 RES1   0.0000
  1288 C36     13.2780  26.3188  21.6550   C.2       1 RES1   0.0000
  1289 C37     14.0146  22.1954  35.2362   C.2       1 RES1   0.0000
  1290 C38     12.7376  22.3916  35.2362   C.2       1 RES1   0.0000
  1291 C39     12.7376  22.1954  27.1856   C.2       1 RES1   0.0000
  1292 C40     14.0146  22.3916  27.1856   C.2       1 RES1   0.0000
  1293 C41     17.4014  31.8494  22.1954   C.2       1 RES1   0.0000
  1294 C42     17.4014  30.5724  22.3916   C.2       1 RES1   0.0000
  1295 C43      9.3508  30.5724  22.1954   C.2       1 RES1   0.0000
  1296 C44      9.3508  31.8494  22.3916   C.2       1 RES1   0.0000
  1297 C45      4.3606  35.2362  31.8494   C.2       1 RES1   0.0000
  1298 C46      4.5568  35.2362  30.5724   C.2       1 RES1   0.0000
  1299 C47      4.3606  27.1856  30.5724   C.2       1 RES1   0.0000
  1300 C48      4.5568  27.1856  31.8494   C.2       1 RES1   0.0000
  1301 H1       3.4867  32.1775  18.2700   H         1 RES1   0.0000
  1302 H2       5.4307  30.2443  18.2700   H         1 RES1   0.0000
  1303 H3       5.4307  32.1775  26.3170   H         1 RES1   0.0000
  1304 H4       3.4867  30.2443  26.3170   H         1 RES1   0.0000
  1305 H5       0.4352  21.3215  32.1775   H         1 RES1   0.0000
  1306 H6       0.4352  23.2655  30.2443   H         1 RES1   0.0000
  1307 H7       8.4822  23.2655  32.1775   H         1 RES1   0.0000
  1308 H8       8.4822  21.3215  30.2443   H         1 RES1   0.0000
  1309 H9      14.3427  18.2700  21.3215   H         1 RES1   0.0000
  1310 H10     12.4095  18.2700  23.2655   H         1 RES1   0.0000
  1311 H11     14.3427  26.3170  23.2655   H         1 RES1   0.0000
  1312 H12     12.4095  26.3170  21.3215   H         1 RES1   0.0000
  1313 H13     14.3481  21.3269  35.2344   H         1 RES1   0.0000
  1314 H14     12.4041  23.2601  35.2344   H         1 RES1   0.0000
  1315 H15     12.4041  21.3269  27.1874   H         1 RES1   0.0000
  1316 H16     14.3481  23.2601  27.1874   H         1 RES1   0.0000
  1317 H17     17.3996  32.1829  21.3269   H         1 RES1   0.0000
  1318 H18     17.3996  30.2389  23.2601   H         1 RES1   0.0000
  1319 H19      9.3526  30.2389  21.3269   H         1 RES1   0.0000
  1320 H20      9.3526  32.1829  23.2601   H         1 RES1   0.0000
  1321 H21      3.4921  35.2344  32.1829   H         1 RES1   0.0000
  1322 H22      5.4253  35.2344  30.2389   H         1 RES1   0.0000
  1323 H23      3.4921  27.1874  30.2389   H         1 RES1   0.0000
  1324 H24      5.4253  27.1874  32.1829   H         1 RES1   0.0000
  1325 C49      3.3993  23.8951  17.8348   C.2       1 RES1   0.0000
  1326 C50      5.5181  20.6919  17.8348   C.2       1 RES1   0.0000
  1327 C51      5.5181  23.8951  26.7522   C.2       1 RES1   0.0000
  1328 C52      3.3993  20.6919  26.7522   C.2       1 RES1   0.0000
  1329 C53      0.0000  21.2341  23.8951   C.2       1 RES1   0.0000
  1330 C54      0.0000  23.3529  20.6919   C.2       1 RES1   0.0000
  1331 C55      8.9174  23.3529  23.8951   C.2       1 RES1   0.0000
  1332 C56      8.9174  21.2341  20.6919   C.2       1 RES1   0.0000
  1333 C57      6.0603  17.8348  21.2341   C.2       1 RES1   0.0000
  1334 C58      2.8571  17.8348  23.3529   C.2       1 RES1   0.0000
  1335 C59      6.0603  26.7522  23.3529   C.2       1 RES1   0.0000
  1336 C60      2.8571  26.7522  21.2341   C.2       1 RES1   0.0000
  1337 C61     14.4355  29.6093  35.6696   C.2       1 RES1   0.0000
  1338 C62     12.3167  32.8125  35.6696   C.2       1 RES1   0.0000
  1339 C63     12.3167  29.6093  26.7522   C.2       1 RES1   0.0000
  1340 C64     14.4355  32.8125  26.7522   C.2       1 RES1   0.0000
  1341 C65     17.8348  32.2703  29.6093   C.2       1 RES1   0.0000
  1342 C66     17.8348  30.1515  32.8125   C.2       1 RES1   0.0000
  1343 C67      8.9174  30.1515  29.6093   C.2       1 RES1   0.0000
  1344 C68      8.9174  32.2703  32.8125   C.2       1 RES1   0.0000
  1345 C69     11.7745  35.6696  32.2703   C.2       1 RES1   0.0000
  1346 C70     14.9777  35.6696  30.1515   C.2       1 RES1   0.0000
  1347 C71     11.7745  26.7522  30.1515   C.2       1 RES1   0.0000
  1348 C72     14.9777  26.7522  32.2703   C.2       1 RES1   0.0000
  1349 C73      4.5782  22.9445  17.8366   C.2       1 RES1   0.0000
  1350 C74      4.3392  21.6425  17.8366   C.2       1 RES1   0.0000
  1351 C75      4.3392  22.9445  26.7504   C.2       1 RES1   0.0000
  1352 C76      4.5782  21.6425  26.7504   C.2       1 RES1   0.0000
  1353 C77      0.0018  22.4130  22.9445   C.2       1 RES1   0.0000
  1354 C78      0.0018  22.1740  21.6425   C.2       1 RES1   0.0000
  1355 C79      8.9156  22.1740  22.9445   C.2       1 RES1   0.0000
  1356 C80      8.9156  22.4130  21.6425   C.2       1 RES1   0.0000
  1357 C81      5.1097  17.8366  22.4130   C.2       1 RES1   0.0000
  1358 C82      3.8077  17.8366  22.1740   C.2       1 RES1   0.0000
  1359 C83      5.1097  26.7504  22.1740   C.2       1 RES1   0.0000
  1360 C84      3.8077  26.7504  22.4130   C.2       1 RES1   0.0000
  1361 C85     13.2566  30.5599  35.6678   C.2       1 RES1   0.0000
  1362 C86     13.4956  31.8619  35.6678   C.2       1 RES1   0.0000
  1363 C87     13.4956  30.5599  26.7540   C.2       1 RES1   0.0000
  1364 C88     13.2566  31.8619  26.7540   C.2       1 RES1   0.0000
  1365 C89     17.8330  31.0914  30.5599   C.2       1 RES1   0.0000
  1366 C90     17.8330  31.3304  31.8619   C.2       1 RES1   0.0000
  1367 C91      8.9192  31.3304  30.5599   C.2       1 RES1   0.0000
  1368 C92      8.9192  31.0914  31.8619   C.2       1 RES1   0.0000
  1369 C93     12.7251  35.6678  31.0914   C.2       1 RES1   0.0000
  1370 C94     14.0271  35.6678  31.3304   C.2       1 RES1   0.0000
  1371 C95     12.7251  26.7540  31.3304   C.2       1 RES1   0.0000
  1372 C96     14.0271  26.7540  31.0914   C.2       1 RES1   0.0000
  1373 H25      5.4503  23.2673  17.8366   H         1 RES1   0.0000
  1374 H26      3.4671  21.3197  17.8366   H         1 RES1   0.0000
  1375 H27      3.4671  23.2673  26.7504   H         1 RES1   0.0000
  1376 H28      5.4503  21.3197  26.7504   H         1 RES1   0.0000
  1377 H29      0.0018  23.2851  23.2673   H         1 RES1   0.0000
  1378 H30      0.0018  21.3019  21.3197   H         1 RES1   0.0000
  1379 H31      8.9156  21.3019  23.2673   H         1 RES1   0.0000
  1380 H32      8.9156  23.2851  21.3197   H         1 RES1   0.0000
  1381 H33      5.4325  17.8366  23.2851   H         1 RES1   0.0000
  1382 H34      3.4849  17.8366  21.3019   H         1 RES1   0.0000
  1383 H35      5.4325  26.7504  21.3019   H         1 RES1   0.0000
  1384 H36      3.4849  26.7504  23.2851   H         1 RES1   0.0000
  1385 H37     12.3845  30.2371  35.6678   H         1 RES1   0.0000
  1386 H38     14.3677  32.1847  35.6678   H         1 RES1   0.0000
  1387 H39     14.3677  30.2371  26.7540   H         1 RES1   0.0000
  1388 H40     12.3845  32.1847  26.7540   H         1 RES1   0.0000
  1389 H41     17.8330  30.2193  30.2371   H         1 RES1   0.0000
  1390 H42     17.8330  32.2025  32.1847   H         1 RES1   0.0000
  1391 H43      8.9192  32.2025  30.2371   H         1 RES1   0.0000
  1392 H44      8.9192  30.2193  32.1847   H         1 RES1   0.0000
  1393 H45     12.4023  35.6678  30.2193   H         1 RES1   0.0000
  1394 H46     14.3499  35.6678  32.2025   H         1 RES1   0.0000
  1395 H47     12.4023  26.7540  32.2025   H         1 RES1   0.0000
  1396 H48     14.3499  26.7540  30.2193   H         1 RES1   0.0000
  1397 O97      1.3644  28.3877  34.5157   O.3       1 RES1   0.0000
  1398 O98      7.5530  34.0341  34.5157   O.3       1 RES1   0.0000
  1399 O99      7.5530  28.3877  27.9061   O.3       1 RES1   0.0000
  1400 O100     1.3644  34.0341  27.9061   O.3       1 RES1   0.0000
  1401 O101    16.6809  19.1992  28.3877   O.3       1 RES1   0.0000
  1402 O102    16.6809  25.3878  34.0341   O.3       1 RES1   0.0000
  1403 O103    10.0713  25.3878  28.3877   O.3       1 RES1   0.0000
  1404 O105    10.5529  34.5157  19.1992   O.3       1 RES1   0.0000
  1405 O106    16.1993  34.5157  25.3878   O.3       1 RES1   0.0000
  1406 O107    10.5529  27.9061  25.3878   O.3       1 RES1   0.0000
  1407 O111    10.2818  25.1167  25.5983   O.3       1 RES1   0.0000
  1408 O112    16.4704  19.4703  25.5983   O.3       1 RES1   0.0000
  1409 O113     1.1539  34.3052  25.1167   O.3       1 RES1   0.0000
  1410 O114     1.1539  28.1166  19.4703   O.3       1 RES1   0.0000
  1411 O115     7.7635  28.1166  25.1167   O.3       1 RES1   0.0000
  1412 O116     7.7635  34.3052  19.4703   O.3       1 RES1   0.0000
  1413 O119     7.2819  25.5983  28.1166   O.3       1 RES1   0.0000
  1414 O155     7.5174  25.3522  25.3522   O.3       1 RES1   0.0000
  1415 O157    16.4348  28.1522  34.2696   O.3       1 RES1   0.0000
  1416 O158    10.3174  34.2696  34.2696   O.3       1 RES1   0.0000
  1417 O159    10.3174  28.1522  28.1522   O.3       1 RES1   0.0000
  1418 O160    16.4348  34.2696  28.1522   O.3       1 RES1   0.0000
  1419 Zr1      2.4585  26.9507  35.8815   Zr        1 RES1   0.0000
  1420 Zr1     20.2933  26.9507  18.0467   Zr        1 RES1   0.0000
  1421 Zr2      6.4589  35.4711  35.8815   Zr        1 RES1   0.0000
  1422 Zr4     20.2933  35.4711  26.5403   Zr        1 RES1   0.0000
  1423 Zr5      0.2119  38.1281  26.9507   Zr        1 RES1   0.0000
  1424 Zr5     18.0467  20.2933  26.9507   Zr        1 RES1   0.0000
  1425 Zr6     18.0467  24.2937  35.4711   Zr        1 RES1   0.0000
  1426 Zr8      8.7055  38.1281  35.4711   Zr        1 RES1   0.0000
  1427 Zr9      9.1159  18.0467  38.1281   Zr        1 RES1   0.0000
  1428 Zr9      9.1159  35.8815  20.2933   Zr        1 RES1   0.0000
  1429 Zr10    -0.1985  35.8815  24.2937   Zr        1 RES1   0.0000
  1430 Zr10    17.6363  35.8815  24.2937   Zr        1 RES1   0.0000
  1431 Zr12    -0.1985  26.5403  38.1281   Zr        1 RES1   0.0000
  1432 Zr12    17.6363  26.5403  38.1281   Zr        1 RES1   0.0000
  1433 Zr13    -2.4585  26.5537  35.4577   Zr        1 RES1   0.0000
  1434 Zr14    11.3759  35.8681  35.4577   Zr        1 RES1   0.0000
  1435 Zr16    -2.4585  35.8681  26.9641   Zr        1 RES1   0.0000
  1436 Zr16    15.3763  35.8681  26.9641   Zr        1 RES1   0.0000
  1437 Zr17    -0.2119  33.2111  26.5537   Zr        1 RES1   0.0000
  1438 Zr18    -0.2119  29.2107  35.8681   Zr        1 RES1   0.0000
  1439 Zr18    17.6229  29.2107  35.8681   Zr        1 RES1   0.0000
  1440 Zr20     9.1293  33.2111  35.8681   Zr        1 RES1   0.0000
  1441 Zr22    18.0333  35.4577  29.2107   Zr        1 RES1   0.0000
  1442 Zr24    18.0333  26.9641  33.2111   Zr        1 RES1   0.0000
  1443 O2       5.1899  37.3015  17.9775   O.2       1 RES1   0.0000
  1444 O4       3.7275  37.3015  26.6095   O.2       1 RES1   0.0000
  1445 O6       0.1427  23.0247  37.3015   O.2       1 RES1   0.0000
  1446 O8       8.7747  21.5623  37.3015   O.2       1 RES1   0.0000
  1447 O10     19.4667  17.9775  23.0247   O.co2     1 RES1   0.0000
  1448 O12     19.4667  26.6095  21.5623   O.co2     1 RES1   0.0000
  1449 O22     -1.6319  35.5269  30.4797   O.2       1 RES1   0.0000
  1450 O24     -1.6319  26.8949  31.9421   O.2       1 RES1   0.0000
  1451 O50      5.5359  35.5394  20.0873   O.2       1 RES1   0.0000
  1452 O52      3.3815  35.5394  24.4997   O.2       1 RES1   0.0000
  1453 O54      2.2525  23.3707  35.5394   O.2       1 RES1   0.0000
  1454 O56      6.6649  21.2163  35.5394   O.2       1 RES1   0.0000
  1455 O58     17.7046  20.0873  23.3707   O.co2     1 RES1   0.0000
  1456 O60     17.7046  24.4997  21.2163   O.co2     1 RES1   0.0000
  1457 O70      0.1302  33.4171  30.1337   O.2       1 RES1   0.0000
  1458 O72      0.1302  29.0047  32.2881   O.2       1 RES1   0.0000
  1459 O77     -1.6158  21.5587  27.1785   O.2       1 RES1   0.0000
  1460 O78     -1.6158  23.0283  35.2433   O.2       1 RES1   0.0000
  1461 O85     14.1109  26.3259  37.2854   O.2       1 RES1   0.0000
  1462 O86     12.6413  18.2611  37.2854   O.2       1 RES1   0.0000
  1463 O89     19.4506  31.9457  26.3259   O.co2     1 RES1   0.0000
  1464 O90     19.4506  30.4761  18.2611   O.co2     1 RES1   0.0000
  1465 O93      8.4911  37.2854  31.9457   O.2       1 RES1   0.0000
  1466 O94      0.4263  37.2854  30.4761   O.2       1 RES1   0.0000
  1467 O97     19.1992  28.3877  16.6809   O.2       1 RES1   0.0000
  1468 O100    19.1992  34.0341  27.9061   O.2       1 RES1   0.0000
  1469 O101    -1.1539  37.0340  28.3877   O.2       1 RES1   0.0000
  1470 O102    -1.1539  25.3878  34.0341   O.2       1 RES1   0.0000
  1471 O104    10.0713  37.0340  34.0341   O.2       1 RES1   0.0000
  1472 O105    10.5529  16.6809  37.0340   O.2       1 RES1   0.0000
  1473 O108    16.1993  27.9061  37.0340   O.2       1 RES1   0.0000
  1474 O109    -1.3644  25.1167  36.8235   O.2       1 RES1   0.0000
  1475 O109    16.4704  25.1167  36.8235   O.2       1 RES1   0.0000
  1476 O110    10.2818  19.4703  36.8235   O.2       1 RES1   0.0000
  1477 O112    -1.3644  19.4703  25.5983   O.2       1 RES1   0.0000
  1478 O113    18.9887  34.3052  25.1167   O.2       1 RES1   0.0000
  1479 O114    18.9887  28.1166  19.4703   O.2       1 RES1   0.0000
  1480 O117     7.2819  36.8235  34.3052   O.2       1 RES1   0.0000
  1481 O118     1.6355  36.8235  28.1166   O.2       1 RES1   0.0000
  1482 O120     1.6355  25.5983  16.4704   O.2       1 RES1   0.0000
  1483 O153     1.4000  25.3522  37.0696   O.2       1 RES1   0.0000
  1484 O153    19.2348  25.3522  19.2348   O.2       1 RES1   0.0000
  1485 O154     7.5174  19.2348  37.0696   O.2       1 RES1   0.0000
  1486 O154     7.5174  37.0696  19.2348   O.2       1 RES1   0.0000
  1487 O156     1.4000  37.0696  25.3522   O.2       1 RES1   0.0000
  1488 O156    19.2348  19.2348  25.3522   O.2       1 RES1   0.0000
  1489 O157    -1.4000  28.1522  34.2696   O.2       1 RES1   0.0000
  1490 O160    -1.4000  34.2696  28.1522   O.2       1 RES1   0.0000
  1491 Zr2     24.2937  17.6363   0.2119   Zr        1 RES1   0.0000
  1492 Zr3     24.2937   9.1159   8.7055   Zr        1 RES1   0.0000
  1493 Zr7     26.5403   6.4589   9.1159   Zr        1 RES1   0.0000
  1494 Zr8     26.5403   2.4585  17.6363   Zr        1 RES1   0.0000
  1495 Zr9     26.9507   0.2119   2.4585   Zr        1 RES1   0.0000
  1496 Zr10    35.4711   0.2119   6.4589   Zr        1 RES1   0.0000
  1497 Zr11    26.9507   8.7055   6.4589   Zr        1 RES1   0.0000
  1498 Zr12    35.4711   8.7055   2.4585   Zr        1 RES1   0.0000
  1499 Zr13    33.2111   8.7189  17.6229   Zr        1 RES1   0.0000
  1500 Zr14    29.2107   0.1985  17.6229   Zr        1 RES1   0.0000
  1501 Zr15    29.2107   8.7189   9.1293   Zr        1 RES1   0.0000
  1502 Zr16    33.2111   0.1985   9.1293   Zr        1 RES1   0.0000
  1503 Zr17    35.4577  15.3763   8.7189   Zr        1 RES1   0.0000
  1504 Zr18    35.4577  11.3759   0.1985   Zr        1 RES1   0.0000
  1505 Zr19    26.9641  11.3759   8.7189   Zr        1 RES1   0.0000
  1506 Zr20    26.9641  15.3763   0.1985   Zr        1 RES1   0.0000
  1507 Zr21    26.5537  17.6229  15.3763   Zr        1 RES1   0.0000
  1508 Zr23    26.5537   9.1293  11.3759   Zr        1 RES1   0.0000
  1509 O1      21.5623   7.2855   0.1427   O.co2     1 RES1   0.0000
  1510 O2      23.0247   1.6319   0.1427   O.co2     1 RES1   0.0000
  1511 O3      23.0247   7.2855   8.7747   O.co2     1 RES1   0.0000
  1512 O4      21.5623   1.6319   8.7747   O.co2     1 RES1   0.0000
  1513 O5      17.9775   3.7275   7.2855   O.co2     1 RES1   0.0000
  1514 O6      17.9775   5.1899   1.6319   O.co2     1 RES1   0.0000
  1515 O7      26.6095   5.1899   7.2855   O.co2     1 RES1   0.0000
  1516 O8      26.6095   3.7275   1.6319   O.co2     1 RES1   0.0000
  1517 O9      25.1203   0.1427   3.7275   O.co2     1 RES1   0.0000
  1518 O11     25.1203   8.7747   5.1899   O.co2     1 RES1   0.0000
  1519 O13     31.9421  10.5493  17.6921   O.co2     1 RES1   0.0000
  1520 O14     30.4797  16.2029  17.6921   O.co2     1 RES1   0.0000
  1521 O15     30.4797  10.5493   9.0601   O.co2     1 RES1   0.0000
  1522 O16     31.9421  16.2029   9.0601   O.co2     1 RES1   0.0000
  1523 O17     35.5269  14.1073  10.5493   O.co2     1 RES1   0.0000
  1524 O18     35.5269  12.6449  16.2029   O.co2     1 RES1   0.0000
  1525 O19     26.8949  12.6449  10.5493   O.co2     1 RES1   0.0000
  1526 O20     26.8949  14.1073  16.2029   O.co2     1 RES1   0.0000
  1527 O21     28.3841  17.6921  14.1073   O.co2     1 RES1   0.0000
  1528 O22     34.0377  17.6921  12.6449   O.co2     1 RES1   0.0000
  1529 O23     28.3841   9.0601  12.6449   O.co2     1 RES1   0.0000
  1530 O24     34.0377   9.0601  14.1073   O.co2     1 RES1   0.0000
  1531 O25     21.2305  11.1396   0.4387   O.co2     1 RES1   0.0000
  1532 O26     23.3565  15.6126   0.4387   O.co2     1 RES1   0.0000
  1533 O27     23.3565  11.1396   8.4787   O.co2     1 RES1   0.0000
  1534 O28     21.2305  15.6126   8.4787   O.co2     1 RES1   0.0000
  1535 O29     18.2735   3.3957  11.1396   O.co2     1 RES1   0.0000
  1536 O30     18.2735   5.5217  15.6126   O.co2     1 RES1   0.0000
  1537 O31     26.3135   5.5217  11.1396   O.co2     1 RES1   0.0000
  1538 O32     26.3135   3.3957  15.6126   O.co2     1 RES1   0.0000
  1539 O33     28.9744   0.4387   3.3957   O.co2     1 RES1   0.0000
  1540 O34     33.4474   0.4387   5.5217   O.co2     1 RES1   0.0000
  1541 O35     28.9744   8.4787   5.5217   O.co2     1 RES1   0.0000
  1542 O36     33.4474   8.4787   3.3957   O.co2     1 RES1   0.0000
  1543 O37     32.2739   6.6952  17.3961   O.co2     1 RES1   0.0000
  1544 O38     30.1479   2.2222  17.3961   O.co2     1 RES1   0.0000
  1545 O39     30.1479   6.6952   9.3561   O.co2     1 RES1   0.0000
  1546 O40     32.2739   2.2222   9.3561   O.co2     1 RES1   0.0000
  1547 O41     35.2309  14.4391   6.6952   O.co2     1 RES1   0.0000
  1548 O42     35.2309  12.3131   2.2222   O.co2     1 RES1   0.0000
  1549 O43     27.1909  12.3131   6.6952   O.co2     1 RES1   0.0000
  1550 O44     27.1909  14.4391   2.2222   O.co2     1 RES1   0.0000
  1551 O45     24.5300  17.3961  14.4391   O.co2     1 RES1   0.0000
  1552 O46     20.0570  17.3961  12.3131   O.co2     1 RES1   0.0000
  1553 O47     24.5300   9.3561  12.3131   O.co2     1 RES1   0.0000
  1554 O48     20.0570   9.3561  14.4391   O.co2     1 RES1   0.0000
  1555 O49     21.2163   9.0476   2.2525   O.co2     1 RES1   0.0000
  1556 O50     23.3707  -0.1302   2.2525   O.co2     1 RES1   0.0000
  1557 O51     23.3707   9.0476   6.6649   O.co2     1 RES1   0.0000
  1558 O52     21.2163  -0.1302   6.6649   O.co2     1 RES1   0.0000
  1559 O53     20.0873   3.3815   9.0476   O.co2     1 RES1   0.0000
  1560 O54     20.0873   5.5359  -0.1302   O.co2     1 RES1   0.0000
  1561 O55     24.4997   5.5359   9.0476   O.co2     1 RES1   0.0000
  1562 O56     24.4997   3.3815  -0.1302   O.co2     1 RES1   0.0000
  1563 O57     26.8824   2.2525   3.3815   O.co2     1 RES1   0.0000
  1564 O59     26.8824   6.6649   5.5359   O.co2     1 RES1   0.0000
  1565 O61     32.2881   8.7872  15.5823   O.co2     1 RES1   0.0000
  1566 O62     30.1337  17.9650  15.5823   O.co2     1 RES1   0.0000
  1567 O63     30.1337   8.7872  11.1699   O.co2     1 RES1   0.0000
  1568 O64     32.2881  17.9650  11.1699   O.co2     1 RES1   0.0000
  1569 O65     33.4171  14.4533   8.7872   O.co2     1 RES1   0.0000
  1570 O66     33.4171  12.2989  17.9650   O.co2     1 RES1   0.0000
  1571 O67     29.0047  12.2989   8.7872   O.co2     1 RES1   0.0000
  1572 O68     29.0047  14.4533  17.9650   O.co2     1 RES1   0.0000
  1573 O69     26.6220  15.5823  14.4533   O.co2     1 RES1   0.0000
  1574 O70     35.7998  15.5823  12.2989   O.co2     1 RES1   0.0000
  1575 O71     26.6220  11.1699  12.2989   O.co2     1 RES1   0.0000
  1576 O72     35.7998  11.1699  14.4533   O.co2     1 RES1   0.0000
  1577 O73     21.5587   9.3437  16.2190   O.co2     1 RES1   0.0000
  1578 O74     23.0283  17.4085  16.2190   O.co2     1 RES1   0.0000
  1579 O75     23.0283   9.3437  10.5332   O.co2     1 RES1   0.0000
  1580 O76     21.5587  17.4085  10.5332   O.co2     1 RES1   0.0000
  1581 O77     34.0538   3.7239   9.3437   O.co2     1 RES1   0.0000
  1582 O78     34.0538   5.1935  17.4085   O.co2     1 RES1   0.0000
  1583 O79     28.3680   5.1935   9.3437   O.co2     1 RES1   0.0000
  1584 O80     28.3680   3.7239  17.4085   O.co2     1 RES1   0.0000
  1585 O81     27.1785  16.2190   3.7239   O.co2     1 RES1   0.0000
  1586 O82     35.2433  16.2190   5.1935   O.co2     1 RES1   0.0000
  1587 O83     27.1785  10.5332   5.1935   O.co2     1 RES1   0.0000
  1588 O84     35.2433  10.5332   3.7239   O.co2     1 RES1   0.0000
  1589 O85     31.9457   8.4911   1.6158   O.co2     1 RES1   0.0000
  1590 O86     30.4761   0.4263   1.6158   O.co2     1 RES1   0.0000
  1591 O87     30.4761   8.4911   7.3016   O.co2     1 RES1   0.0000
  1592 O88     31.9457   0.4263   7.3016   O.co2     1 RES1   0.0000
  1593 O91     25.1364  12.6413   8.4911   O.co2     1 RES1   0.0000
  1594 O92     25.1364  14.1109   0.4263   O.co2     1 RES1   0.0000
  1595 O93     26.3259   1.6158  14.1109   O.co2     1 RES1   0.0000
  1596 O94     18.2611   1.6158  12.6413   O.co2     1 RES1   0.0000
  1597 O95     26.3259   7.3016  12.6413   O.co2     1 RES1   0.0000
  1598 O96     18.2611   7.3016  14.1109   O.co2     1 RES1   0.0000
  1599 C1      20.6955  12.2900   0.4280   C.2       1 RES1   0.0000
  1600 C2      23.8915  14.4622   0.4280   C.2       1 RES1   0.0000
  1601 C3      23.8915  12.2900   8.4894   C.2       1 RES1   0.0000
  1602 C4      20.6955  14.4622   8.4894   C.2       1 RES1   0.0000
  1603 C5      18.2628   2.8607  12.2900   C.2       1 RES1   0.0000
  1604 C6      18.2628   6.0567  14.4622   C.2       1 RES1   0.0000
  1605 C7      26.3242   6.0567  12.2900   C.2       1 RES1   0.0000
  1606 C8      26.3242   2.8607  14.4622   C.2       1 RES1   0.0000
  1607 C9      30.1248   0.4280   2.8607   C.2       1 RES1   0.0000
  1608 C10     32.2970   0.4280   6.0567   C.2       1 RES1   0.0000
  1609 C11     30.1248   8.4894   6.0567   C.2       1 RES1   0.0000
  1610 C12     32.2970   8.4894   2.8607   C.2       1 RES1   0.0000
  1611 C13     32.8089   5.5448  17.4068   C.2       1 RES1   0.0000
  1612 C14     29.6129   3.3726  17.4068   C.2       1 RES1   0.0000
  1613 C15     29.6129   5.5448   9.3454   C.2       1 RES1   0.0000
  1614 C16     32.8089   3.3726   9.3454   C.2       1 RES1   0.0000
  1615 C17     35.2416  14.9741   5.5448   C.2       1 RES1   0.0000
  1616 C18     35.2416  11.7781   3.3726   C.2       1 RES1   0.0000
  1617 C19     27.1802  11.7781   5.5448   C.2       1 RES1   0.0000
  1618 C20     27.1802  14.9741   3.3726   C.2       1 RES1   0.0000
  1619 C21     23.3796  17.4068  14.9741   C.2       1 RES1   0.0000
  1620 C22     21.2074  17.4068  11.7781   C.2       1 RES1   0.0000
  1621 C23     23.3796   9.3454  11.7781   C.2       1 RES1   0.0000
  1622 C24     21.2074   9.3454  14.9741   C.2       1 RES1   0.0000
  1623 C25     21.6550  13.4742   0.4334   C.2       1 RES1   0.0000
  1624 C26     22.9320  13.2780   0.4334   C.2       1 RES1   0.0000
  1625 C27     22.9320  13.4742   8.4840   C.2       1 RES1   0.0000
  1626 C28     21.6550  13.2780   8.4840   C.2       1 RES1   0.0000
  1627 C29     18.2682   3.8202  13.4742   C.2       1 RES1   0.0000
  1628 C30     18.2682   5.0972  13.2780   C.2       1 RES1   0.0000
  1629 C31     26.3188   5.0972  13.4742   C.2       1 RES1   0.0000
  1630 C32     26.3188   3.8202  13.2780   C.2       1 RES1   0.0000
  1631 C33     31.3090   0.4334   3.8202   C.2       1 RES1   0.0000
  1632 C34     31.1128   0.4334   5.0972   C.2       1 RES1   0.0000
  1633 C35     31.3090   8.4840   5.0972   C.2       1 RES1   0.0000
  1634 C36     31.1128   8.4840   3.8202   C.2       1 RES1   0.0000
  1635 C37     31.8494   4.3606  17.4014   C.2       1 RES1   0.0000
  1636 C38     30.5724   4.5568  17.4014   C.2       1 RES1   0.0000
  1637 C39     30.5724   4.3606   9.3508   C.2       1 RES1   0.0000
  1638 C40     31.8494   4.5568   9.3508   C.2       1 RES1   0.0000
  1639 C41     35.2362  14.0146   4.3606   C.2       1 RES1   0.0000
  1640 C42     35.2362  12.7376   4.5568   C.2       1 RES1   0.0000
  1641 C43     27.1856  12.7376   4.3606   C.2       1 RES1   0.0000
  1642 C44     27.1856  14.0146   4.5568   C.2       1 RES1   0.0000
  1643 C45     22.1954  17.4014  14.0146   C.2       1 RES1   0.0000
  1644 C46     22.3916  17.4014  12.7376   C.2       1 RES1   0.0000
  1645 C47     22.1954   9.3508  12.7376   C.2       1 RES1   0.0000
  1646 C48     22.3916   9.3508  14.0146   C.2       1 RES1   0.0000
  1647 H1      21.3215  14.3427   0.4352   H         1 RES1   0.0000
  1648 H2      23.2655  12.4095   0.4352   H         1 RES1   0.0000
  1649 H3      23.2655  14.3427   8.4822   H         1 RES1   0.0000
  1650 H4      21.3215  12.4095   8.4822   H         1 RES1   0.0000
  1651 H5      18.2700   3.4867  14.3427   H         1 RES1   0.0000
  1652 H6      18.2700   5.4307  12.4095   H         1 RES1   0.0000
  1653 H7      26.3170   5.4307  14.3427   H         1 RES1   0.0000
  1654 H8      26.3170   3.4867  12.4095   H         1 RES1   0.0000
  1655 H9      32.1775   0.4352   3.4867   H         1 RES1   0.0000
  1656 H10     30.2443   0.4352   5.4307   H         1 RES1   0.0000
  1657 H11     32.1775   8.4822   5.4307   H         1 RES1   0.0000
  1658 H12     30.2443   8.4822   3.4867   H         1 RES1   0.0000
  1659 H13     32.1829   3.4921  17.3996   H         1 RES1   0.0000
  1660 H14     30.2389   5.4253  17.3996   H         1 RES1   0.0000
  1661 H15     30.2389   3.4921   9.3526   H         1 RES1   0.0000
  1662 H16     32.1829   5.4253   9.3526   H         1 RES1   0.0000
  1663 H17     35.2344  14.3481   3.4921   H         1 RES1   0.0000
  1664 H18     35.2344  12.4041   5.4253   H         1 RES1   0.0000
  1665 H19     27.1874  12.4041   3.4921   H         1 RES1   0.0000
  1666 H20     27.1874  14.3481   5.4253   H         1 RES1   0.0000
  1667 H21     21.3269  17.3996  14.3481   H         1 RES1   0.0000
  1668 H22     23.2601  17.3996  12.4041   H         1 RES1   0.0000
  1669 H23     21.3269   9.3526  12.4041   H         1 RES1   0.0000
  1670 H24     23.2601   9.3526  14.3481   H         1 RES1   0.0000
  1671 C49     21.2341   6.0603   0.0000   C.2       1 RES1   0.0000
  1672 C50     23.3529   2.8571   0.0000   C.2       1 RES1   0.0000
  1673 C51     23.3529   6.0603   8.9174   C.2       1 RES1   0.0000
  1674 C52     21.2341   2.8571   8.9174   C.2       1 RES1   0.0000
  1675 C53     17.8348   3.3993   6.0603   C.2       1 RES1   0.0000
  1676 C54     17.8348   5.5181   2.8571   C.2       1 RES1   0.0000
  1677 C55     26.7522   5.5181   6.0603   C.2       1 RES1   0.0000
  1678 C56     26.7522   3.3993   2.8571   C.2       1 RES1   0.0000
  1679 C57     23.8951   0.0000   3.3993   C.2       1 RES1   0.0000
  1680 C58     20.6919   0.0000   5.5181   C.2       1 RES1   0.0000
  1681 C59     23.8951   8.9174   5.5181   C.2       1 RES1   0.0000
  1682 C60     20.6919   8.9174   3.3993   C.2       1 RES1   0.0000
  1683 C61     32.2703  11.7745  17.8348   C.2       1 RES1   0.0000
  1684 C62     30.1515  14.9777  17.8348   C.2       1 RES1   0.0000
  1685 C63     30.1515  11.7745   8.9174   C.2       1 RES1   0.0000
  1686 C64     32.2703  14.9777   8.9174   C.2       1 RES1   0.0000
  1687 C65     35.6696  14.4355  11.7745   C.2       1 RES1   0.0000
  1688 C66     35.6696  12.3167  14.9777   C.2       1 RES1   0.0000
  1689 C67     26.7522  12.3167  11.7745   C.2       1 RES1   0.0000
  1690 C68     26.7522  14.4355  14.9777   C.2       1 RES1   0.0000
  1691 C69     29.6093  17.8348  14.4355   C.2       1 RES1   0.0000
  1692 C70     32.8125  17.8348  12.3167   C.2       1 RES1   0.0000
  1693 C71     29.6093   8.9174  12.3167   C.2       1 RES1   0.0000
  1694 C72     32.8125   8.9174  14.4355   C.2       1 RES1   0.0000
  1695 C73     22.4130   5.1097   0.0018   C.2       1 RES1   0.0000
  1696 C74     22.1740   3.8077   0.0018   C.2       1 RES1   0.0000
  1697 C75     22.1740   5.1097   8.9156   C.2       1 RES1   0.0000
  1698 C76     22.4130   3.8077   8.9156   C.2       1 RES1   0.0000
  1699 C77     17.8366   4.5782   5.1097   C.2       1 RES1   0.0000
  1700 C78     17.8366   4.3392   3.8077   C.2       1 RES1   0.0000
  1701 C79     26.7504   4.3392   5.1097   C.2       1 RES1   0.0000
  1702 C80     26.7504   4.5782   3.8077   C.2       1 RES1   0.0000
  1703 C81     22.9445   0.0018   4.5782   C.2       1 RES1   0.0000
  1704 C82     21.6425   0.0018   4.3392   C.2       1 RES1   0.0000
  1705 C83     22.9445   8.9156   4.3392   C.2       1 RES1   0.0000
  1706 C84     21.6425   8.9156   4.5782   C.2       1 RES1   0.0000
  1707 C85     31.0914  12.7251  17.8330   C.2       1 RES1   0.0000
  1708 C86     31.3304  14.0271  17.8330   C.2       1 RES1   0.0000
  1709 C87     31.3304  12.7251   8.9192   C.2       1 RES1   0.0000
  1710 C88     31.0914  14.0271   8.9192   C.2       1 RES1   0.0000
  1711 C89     35.6678  13.2566  12.7251   C.2       1 RES1   0.0000
  1712 C90     35.6678  13.4956  14.0271   C.2       1 RES1   0.0000
  1713 C91     26.7540  13.4956  12.7251   C.2       1 RES1   0.0000
  1714 C92     26.7540  13.2566  14.0271   C.2       1 RES1   0.0000
  1715 C93     30.5599  17.8330  13.2566   C.2       1 RES1   0.0000
  1716 C94     31.8619  17.8330  13.4956   C.2       1 RES1   0.0000
  1717 C95     30.5599   8.9192  13.4956   C.2       1 RES1   0.0000
  1718 C96     31.8619   8.9192  13.2566   C.2       1 RES1   0.0000
  1719 H25     23.2851   5.4325   0.0018   H         1 RES1   0.0000
  1720 H26     21.3019   3.4849   0.0018   H         1 RES1   0.0000
  1721 H27     21.3019   5.4325   8.9156   H         1 RES1   0.0000
  1722 H28     23.2851   3.4849   8.9156   H         1 RES1   0.0000
  1723 H29     17.8366   5.4503   5.4325   H         1 RES1   0.0000
  1724 H30     17.8366   3.4671   3.4849   H         1 RES1   0.0000
  1725 H31     26.7504   3.4671   5.4325   H         1 RES1   0.0000
  1726 H32     26.7504   5.4503   3.4849   H         1 RES1   0.0000
  1727 H33     23.2673   0.0018   5.4503   H         1 RES1   0.0000
  1728 H34     21.3197   0.0018   3.4671   H         1 RES1   0.0000
  1729 H35     23.2673   8.9156   3.4671   H         1 RES1   0.0000
  1730 H36     21.3197   8.9156   5.4503   H         1 RES1   0.0000
  1731 H37     30.2193  12.4023  17.8330   H         1 RES1   0.0000
  1732 H38     32.2025  14.3499  17.8330   H         1 RES1   0.0000
  1733 H39     32.2025  12.4023   8.9192   H         1 RES1   0.0000
  1734 H40     30.2193  14.3499   8.9192   H         1 RES1   0.0000
  1735 H41     35.6678  12.3845  12.4023   H         1 RES1   0.0000
  1736 H42     35.6678  14.3677  14.3499   H         1 RES1   0.0000
  1737 H43     26.7540  14.3677  12.4023   H         1 RES1   0.0000
  1738 H44     26.7540  12.3845  14.3499   H         1 RES1   0.0000
  1739 H45     30.2371  17.8330  12.3845   H         1 RES1   0.0000
  1740 H46     32.1847  17.8330  14.3677   H         1 RES1   0.0000
  1741 H47     30.2371   8.9192  14.3677   H         1 RES1   0.0000
  1742 H48     32.1847   8.9192  12.3845   H         1 RES1   0.0000
  1743 O98     25.3878  16.1993  16.6809   O.3       1 RES1   0.0000
  1744 O99     25.3878  10.5529  10.0713   O.3       1 RES1   0.0000
  1745 O101    34.5157   1.3644  10.5529   O.3       1 RES1   0.0000
  1746 O102    34.5157   7.5530  16.1993   O.3       1 RES1   0.0000
  1747 O103    27.9061   7.5530  10.5529   O.3       1 RES1   0.0000
  1748 O104    27.9061   1.3644  16.1993   O.3       1 RES1   0.0000
  1749 O105    28.3877  16.6809   1.3644   O.3       1 RES1   0.0000
  1750 O106    34.0341  16.6809   7.5530   O.3       1 RES1   0.0000
  1751 O107    28.3877  10.0713   7.5530   O.3       1 RES1   0.0000
  1752 O108    34.0341  10.0713   1.3644   O.3       1 RES1   0.0000
  1753 O109    34.3052   7.2819   1.1539   O.3       1 RES1   0.0000
  1754 O110    28.1166   1.6355   1.1539   O.3       1 RES1   0.0000
  1755 O111    28.1166   7.2819   7.7635   O.3       1 RES1   0.0000
  1756 O112    34.3052   1.6355   7.7635   O.3       1 RES1   0.0000
  1757 O115    25.5983  10.2818   7.2819   O.3       1 RES1   0.0000
  1758 O116    25.5983  16.4704   1.6355   O.3       1 RES1   0.0000
  1759 O117    25.1167   1.1539  16.4704   O.3       1 RES1   0.0000
  1760 O118    19.4703   1.1539  10.2818   O.3       1 RES1   0.0000
  1761 O119    25.1167   7.7635  10.2818   O.3       1 RES1   0.0000
  1762 O154    25.3522   1.4000   1.4000   O.3       1 RES1   0.0000
  1763 O155    25.3522   7.5174   7.5174   O.3       1 RES1   0.0000
  1764 O157    34.2696  10.3174  16.4348   O.3       1 RES1   0.0000
  1765 O158    28.1522  16.4348  16.4348   O.3       1 RES1   0.0000
  1766 O159    28.1522  10.3174  10.3174   O.3       1 RES1   0.0000
  1767 O160    34.2696  16.4348  10.3174   O.3       1 RES1   0.0000
  1768 Zr1     38.1281   9.1159   0.2119   Zr        1 RES1   0.0000
  1769 Zr2     24.2937  -0.1985   0.2119   Zr        1 RES1   0.0000
  1770 Zr2     24.2937  -0.1985  18.0467   Zr        1 RES1   0.0000
  1771 Zr2     24.2937  17.6363  18.0467   Zr        1 RES1   0.0000
  1772 Zr4     38.1281  -0.1985   8.7055   Zr        1 RES1   0.0000
  1773 Zr4     38.1281  17.6363   8.7055   Zr        1 RES1   0.0000
  1774 Zr5     35.8815   2.4585   9.1159   Zr        1 RES1   0.0000
  1775 Zr6     35.8815   6.4589  -0.1985   Zr        1 RES1   0.0000
  1776 Zr6     35.8815   6.4589  17.6363   Zr        1 RES1   0.0000
  1777 Zr8     26.5403   2.4585  -0.1985   Zr        1 RES1   0.0000
  1778 Zr8     26.5403  20.2933  -0.1985   Zr        1 RES1   0.0000
  1779 Zr8     26.5403  20.2933  17.6363   Zr        1 RES1   0.0000
  1780 Zr9     26.9507   0.2119  20.2933   Zr        1 RES1   0.0000
  1781 Zr9     26.9507  18.0467   2.4585   Zr        1 RES1   0.0000
  1782 Zr10    35.4711  18.0467   6.4589   Zr        1 RES1   0.0000
  1783 Zr12    35.4711   8.7055  20.2933   Zr        1 RES1   0.0000
  1784 Zr13    33.2111   8.7189  -0.2119   Zr        1 RES1   0.0000
  1785 Zr14    29.2107   0.1985  -0.2119   Zr        1 RES1   0.0000
  1786 Zr14    29.2107  18.0333  -0.2119   Zr        1 RES1   0.0000
  1787 Zr14    29.2107  18.0333  17.6229   Zr        1 RES1   0.0000
  1788 Zr16    33.2111  18.0333   9.1293   Zr        1 RES1   0.0000
  1789 Zr17    35.4577  -2.4585   8.7189   Zr        1 RES1   0.0000
  1790 Zr18    35.4577  11.3759  18.0333   Zr        1 RES1   0.0000
  1791 Zr20    26.9641  -2.4585   0.1985   Zr        1 RES1   0.0000
  1792 Zr20    26.9641  -2.4585  18.0333   Zr        1 RES1   0.0000
  1793 Zr20    26.9641  15.3763  18.0333   Zr        1 RES1   0.0000
  1794 Zr21    26.5537  -0.2119  15.3763   Zr        1 RES1   0.0000
  1795 Zr21    26.5537  17.6229  -2.4585   Zr        1 RES1   0.0000
  1796 Zr22    35.8681  -0.2119  11.3759   Zr        1 RES1   0.0000
  1797 Zr22    35.8681  17.6229  11.3759   Zr        1 RES1   0.0000
  1798 Zr24    35.8681   9.1293  -2.4585   Zr        1 RES1   0.0000
  1799 Zr24    35.8681   9.1293  15.3763   Zr        1 RES1   0.0000
  1800 O2      23.0247  19.4667   0.1427   O.co2     1 RES1   0.0000
  1801 O4      21.5623  19.4667   8.7747   O.co2     1 RES1   0.0000
  1802 O6      17.9775   5.1899  19.4667   O.co2     1 RES1   0.0000
  1803 O8      26.6095   3.7275  19.4667   O.co2     1 RES1   0.0000
  1804 O10     37.3015   0.1427   5.1899   O.2       1 RES1   0.0000
  1805 O12     37.3015   8.7747   3.7275   O.2       1 RES1   0.0000
  1806 O14     30.4797  -1.6319  17.6921   O.2       1 RES1   0.0000
  1807 O16     31.9421  -1.6319   9.0601   O.2       1 RES1   0.0000
  1808 O18     35.5269  12.6449  -1.6319   O.2       1 RES1   0.0000
  1809 O20     26.8949  14.1073  -1.6319   O.2       1 RES1   0.0000
  1810 O50     23.3707  17.7046   2.2525   O.co2     1 RES1   0.0000
  1811 O52     21.2163  17.7046   6.6649   O.co2     1 RES1   0.0000
  1812 O54     20.0873   5.5359  17.7046   O.co2     1 RES1   0.0000
  1813 O56     24.4997   3.3815  17.7046   O.co2     1 RES1   0.0000
  1814 O58     35.5394   2.2525   5.5359   O.2       1 RES1   0.0000
  1815 O60     35.5394   6.6649   3.3815   O.2       1 RES1   0.0000
  1816 O62     30.1337   0.1302  15.5823   O.2       1 RES1   0.0000
  1817 O64     32.2881   0.1302  11.1699   O.2       1 RES1   0.0000
  1818 O66     33.4171  12.2989   0.1302   O.2       1 RES1   0.0000
  1819 O68     29.0047  14.4533   0.1302   O.2       1 RES1   0.0000
  1820 O73     21.5587   9.3437  -1.6158   O.2       1 RES1   0.0000
  1821 O74     23.0283  17.4085  -1.6158   O.2       1 RES1   0.0000
  1822 O81     27.1785  -1.6158   3.7239   O.2       1 RES1   0.0000
  1823 O82     35.2433  -1.6158   5.1935   O.2       1 RES1   0.0000
  1824 O85     31.9457   8.4911  19.4506   O.co2     1 RES1   0.0000
  1825 O86     30.4761   0.4263  19.4506   O.co2     1 RES1   0.0000
  1826 O89     37.2854  14.1109   8.4911   O.2       1 RES1   0.0000
  1827 O90     37.2854  12.6413   0.4263   O.2       1 RES1   0.0000
  1828 O93     26.3259  19.4506  14.1109   O.co2     1 RES1   0.0000
  1829 O94     18.2611  19.4506  12.6413   O.co2     1 RES1   0.0000
  1830 O97     37.0340  10.5529  -1.1539   O.2       1 RES1   0.0000
  1831 O98     25.3878  16.1993  -1.1539   O.2       1 RES1   0.0000
  1832 O100    37.0340  16.1993  10.0713   O.2       1 RES1   0.0000
  1833 O104    27.9061  19.1992  16.1993   O.2       1 RES1   0.0000
  1834 O105    28.3877  -1.1539   1.3644   O.2       1 RES1   0.0000
  1835 O105    28.3877  -1.1539  19.1992   O.2       1 RES1   0.0000
  1836 O106    34.0341  -1.1539   7.5530   O.2       1 RES1   0.0000
  1837 O108    34.0341  10.0713  19.1992   O.2       1 RES1   0.0000
  1838 O109    34.3052   7.2819  18.9887   O.2       1 RES1   0.0000
  1839 O110    28.1166   1.6355  18.9887   O.2       1 RES1   0.0000
  1840 O113    36.8235  -1.3644   7.2819   O.2       1 RES1   0.0000
  1841 O113    36.8235  16.4704   7.2819   O.2       1 RES1   0.0000
  1842 O114    36.8235  10.2818   1.6355   O.2       1 RES1   0.0000
  1843 O116    25.5983  -1.3644   1.6355   O.2       1 RES1   0.0000
  1844 O117    25.1167  18.9887  -1.3644   O.2       1 RES1   0.0000
  1845 O117    25.1167  18.9887  16.4704   O.2       1 RES1   0.0000
  1846 O118    19.4703  18.9887  10.2818   O.2       1 RES1   0.0000
  1847 O120    19.4703   7.7635  -1.3644   O.2       1 RES1   0.0000
  1848 O153    37.0696   7.5174   1.4000   O.2       1 RES1   0.0000
  1849 O154    25.3522   1.4000  19.2348   O.2       1 RES1   0.0000
  1850 O154    25.3522  19.2348   1.4000   O.2       1 RES1   0.0000
  1851 O156    37.0696   1.4000   7.5174   O.2       1 RES1   0.0000
  1852 O157    34.2696  10.3174  -1.4000   O.2       1 RES1   0.0000
  1853 O158    28.1522  -1.4000  16.4348   O.2       1 RES1   0.0000
  1854 O158    28.1522  16.4348  -1.4000   O.2       1 RES1   0.0000
  1855 O160    34.2696  -1.4000  10.3174   O.2       1 RES1   0.0000
  1856 Zr3     24.2937   9.1159  26.5403   Zr        1 RES1   0.0000
  1857 Zr7     26.5403   6.4589  26.9507   Zr        1 RES1   0.0000
  1858 Zr8     26.5403   2.4585  35.4711   Zr        1 RES1   0.0000
  1859 Zr10    35.4711   0.2119  24.2937   Zr        1 RES1   0.0000
  1860 Zr11    26.9507   8.7055  24.2937   Zr        1 RES1   0.0000
  1861 Zr13    33.2111   8.7189  35.4577   Zr        1 RES1   0.0000
  1862 Zr14    29.2107   0.1985  35.4577   Zr        1 RES1   0.0000
  1863 Zr15    29.2107   8.7189  26.9641   Zr        1 RES1   0.0000
  1864 Zr16    33.2111   0.1985  26.9641   Zr        1 RES1   0.0000
  1865 Zr17    35.4577  15.3763  26.5537   Zr        1 RES1   0.0000
  1866 Zr19    26.9641  11.3759  26.5537   Zr        1 RES1   0.0000
  1867 Zr21    26.5537  17.6229  33.2111   Zr        1 RES1   0.0000
  1868 Zr23    26.5537   9.1293  29.2107   Zr        1 RES1   0.0000
  1869 O1      21.5623   7.2855  17.9775   O.co2     1 RES1   0.0000
  1870 O2      23.0247   1.6319  17.9775   O.co2     1 RES1   0.0000
  1871 O3      23.0247   7.2855  26.6095   O.co2     1 RES1   0.0000
  1872 O4      21.5623   1.6319  26.6095   O.co2     1 RES1   0.0000
  1873 O5      17.9775   3.7275  25.1203   O.co2     1 RES1   0.0000
  1874 O7      26.6095   5.1899  25.1203   O.co2     1 RES1   0.0000
  1875 O9      25.1203   0.1427  21.5623   O.co2     1 RES1   0.0000
  1876 O11     25.1203   8.7747  23.0247   O.co2     1 RES1   0.0000
  1877 O13     31.9421  10.5493  35.5269   O.co2     1 RES1   0.0000
  1878 O14     30.4797  16.2029  35.5269   O.co2     1 RES1   0.0000
  1879 O15     30.4797  10.5493  26.8949   O.co2     1 RES1   0.0000
  1880 O16     31.9421  16.2029  26.8949   O.co2     1 RES1   0.0000
  1881 O17     35.5269  14.1073  28.3841   O.co2     1 RES1   0.0000
  1882 O18     35.5269  12.6449  34.0377   O.co2     1 RES1   0.0000
  1883 O19     26.8949  12.6449  28.3841   O.co2     1 RES1   0.0000
  1884 O20     26.8949  14.1073  34.0377   O.co2     1 RES1   0.0000
  1885 O21     28.3841  17.6921  31.9421   O.co2     1 RES1   0.0000
  1886 O22     34.0377  17.6921  30.4797   O.co2     1 RES1   0.0000
  1887 O23     28.3841   9.0601  30.4797   O.co2     1 RES1   0.0000
  1888 O24     34.0377   9.0601  31.9421   O.co2     1 RES1   0.0000
  1889 O25     21.2305  11.1396  18.2735   O.co2     1 RES1   0.0000
  1890 O26     23.3565  15.6126  18.2735   O.co2     1 RES1   0.0000
  1891 O27     23.3565  11.1396  26.3135   O.co2     1 RES1   0.0000
  1892 O28     21.2305  15.6126  26.3135   O.co2     1 RES1   0.0000
  1893 O29     18.2735   3.3957  28.9744   O.co2     1 RES1   0.0000
  1894 O30     18.2735   5.5217  33.4474   O.co2     1 RES1   0.0000
  1895 O31     26.3135   5.5217  28.9744   O.co2     1 RES1   0.0000
  1896 O32     26.3135   3.3957  33.4474   O.co2     1 RES1   0.0000
  1897 O33     28.9744   0.4387  21.2305   O.co2     1 RES1   0.0000
  1898 O34     33.4474   0.4387  23.3565   O.co2     1 RES1   0.0000
  1899 O35     28.9744   8.4787  23.3565   O.co2     1 RES1   0.0000
  1900 O36     33.4474   8.4787  21.2305   O.co2     1 RES1   0.0000
  1901 O37     32.2739   6.6952  35.2309   O.co2     1 RES1   0.0000
  1902 O38     30.1479   2.2222  35.2309   O.co2     1 RES1   0.0000
  1903 O39     30.1479   6.6952  27.1909   O.co2     1 RES1   0.0000
  1904 O40     32.2739   2.2222  27.1909   O.co2     1 RES1   0.0000
  1905 O41     35.2309  14.4391  24.5300   O.co2     1 RES1   0.0000
  1906 O42     35.2309  12.3131  20.0570   O.co2     1 RES1   0.0000
  1907 O43     27.1909  12.3131  24.5300   O.co2     1 RES1   0.0000
  1908 O44     27.1909  14.4391  20.0570   O.co2     1 RES1   0.0000
  1909 O45     24.5300  17.3961  32.2739   O.co2     1 RES1   0.0000
  1910 O46     20.0570  17.3961  30.1479   O.co2     1 RES1   0.0000
  1911 O47     24.5300   9.3561  30.1479   O.co2     1 RES1   0.0000
  1912 O48     20.0570   9.3561  32.2739   O.co2     1 RES1   0.0000
  1913 O49     21.2163   9.0476  20.0873   O.co2     1 RES1   0.0000
  1914 O50     23.3707  -0.1302  20.0873   O.co2     1 RES1   0.0000
  1915 O51     23.3707   9.0476  24.4997   O.co2     1 RES1   0.0000
  1916 O52     21.2163  -0.1302  24.4997   O.co2     1 RES1   0.0000
  1917 O53     20.0873   3.3815  26.8824   O.co2     1 RES1   0.0000
  1918 O55     24.4997   5.5359  26.8824   O.co2     1 RES1   0.0000
  1919 O57     26.8824   2.2525  21.2163   O.co2     1 RES1   0.0000
  1920 O59     26.8824   6.6649  23.3707   O.co2     1 RES1   0.0000
  1921 O61     32.2881   8.7872  33.4171   O.co2     1 RES1   0.0000
  1922 O62     30.1337  17.9650  33.4171   O.co2     1 RES1   0.0000
  1923 O63     30.1337   8.7872  29.0047   O.co2     1 RES1   0.0000
  1924 O64     32.2881  17.9650  29.0047   O.co2     1 RES1   0.0000
  1925 O65     33.4171  14.4533  26.6220   O.co2     1 RES1   0.0000
  1926 O66     33.4171  12.2989  35.7998   O.co2     1 RES1   0.0000
  1927 O67     29.0047  12.2989  26.6220   O.co2     1 RES1   0.0000
  1928 O68     29.0047  14.4533  35.7998   O.co2     1 RES1   0.0000
  1929 O69     26.6220  15.5823  32.2881   O.co2     1 RES1   0.0000
  1930 O70     35.7998  15.5823  30.1337   O.co2     1 RES1   0.0000
  1931 O71     26.6220  11.1699  30.1337   O.co2     1 RES1   0.0000
  1932 O72     35.7998  11.1699  32.2881   O.co2     1 RES1   0.0000
  1933 O73     21.5587   9.3437  34.0538   O.co2     1 RES1   0.0000
  1934 O74     23.0283  17.4085  34.0538   O.co2     1 RES1   0.0000
  1935 O75     23.0283   9.3437  28.3680   O.co2     1 RES1   0.0000
  1936 O76     21.5587  17.4085  28.3680   O.co2     1 RES1   0.0000
  1937 O77     34.0538   3.7239  27.1785   O.co2     1 RES1   0.0000
  1938 O78     34.0538   5.1935  35.2433   O.co2     1 RES1   0.0000
  1939 O79     28.3680   5.1935  27.1785   O.co2     1 RES1   0.0000
  1940 O80     28.3680   3.7239  35.2433   O.co2     1 RES1   0.0000
  1941 O81     27.1785  16.2190  21.5587   O.co2     1 RES1   0.0000
  1942 O82     35.2433  16.2190  23.0283   O.co2     1 RES1   0.0000
  1943 O83     27.1785  10.5332  23.0283   O.co2     1 RES1   0.0000
  1944 O84     35.2433  10.5332  21.5587   O.co2     1 RES1   0.0000
  1945 O87     30.4761   8.4911  25.1364   O.co2     1 RES1   0.0000
  1946 O88     31.9457   0.4263  25.1364   O.co2     1 RES1   0.0000
  1947 O91     25.1364  12.6413  26.3259   O.co2     1 RES1   0.0000
  1948 O92     25.1364  14.1109  18.2611   O.co2     1 RES1   0.0000
  1949 O93     26.3259   1.6158  31.9457   O.co2     1 RES1   0.0000
  1950 O94     18.2611   1.6158  30.4761   O.co2     1 RES1   0.0000
  1951 O95     26.3259   7.3016  30.4761   O.co2     1 RES1   0.0000
  1952 O96     18.2611   7.3016  31.9457   O.co2     1 RES1   0.0000
  1953 C1      20.6955  12.2900  18.2628   C.2       1 RES1   0.0000
  1954 C2      23.8915  14.4622  18.2628   C.2       1 RES1   0.0000
  1955 C3      23.8915  12.2900  26.3242   C.2       1 RES1   0.0000
  1956 C4      20.6955  14.4622  26.3242   C.2       1 RES1   0.0000
  1957 C5      18.2628   2.8607  30.1248   C.2       1 RES1   0.0000
  1958 C6      18.2628   6.0567  32.2970   C.2       1 RES1   0.0000
  1959 C7      26.3242   6.0567  30.1248   C.2       1 RES1   0.0000
  1960 C8      26.3242   2.8607  32.2970   C.2       1 RES1   0.0000
  1961 C9      30.1248   0.4280  20.6955   C.2       1 RES1   0.0000
  1962 C10     32.2970   0.4280  23.8915   C.2       1 RES1   0.0000
  1963 C11     30.1248   8.4894  23.8915   C.2       1 RES1   0.0000
  1964 C12     32.2970   8.4894  20.6955   C.2       1 RES1   0.0000
  1965 C13     32.8089   5.5448  35.2416   C.2       1 RES1   0.0000
  1966 C14     29.6129   3.3726  35.2416   C.2       1 RES1   0.0000
  1967 C15     29.6129   5.5448  27.1802   C.2       1 RES1   0.0000
  1968 C16     32.8089   3.3726  27.1802   C.2       1 RES1   0.0000
  1969 C17     35.2416  14.9741  23.3796   C.2       1 RES1   0.0000
  1970 C18     35.2416  11.7781  21.2074   C.2       1 RES1   0.0000
  1971 C19     27.1802  11.7781  23.3796   C.2       1 RES1   0.0000
  1972 C20     27.1802  14.9741  21.2074   C.2       1 RES1   0.0000
  1973 C21     23.3796  17.4068  32.8089   C.2       1 RES1   0.0000
  1974 C22     21.2074  17.4068  29.6129   C.2       1 RES1   0.0000
  1975 C23     23.3796   9.3454  29.6129   C.2       1 RES1   0.0000
  1976 C24     21.2074   9.3454  32.8089   C.2       1 RES1   0.0000
  1977 C25     21.6550  13.4742  18.2682   C.2       1 RES1   0.0000
  1978 C26     22.9320  13.2780  18.2682   C.2       1 RES1   0.0000
  1979 C27     22.9320  13.4742  26.3188   C.2       1 RES1   0.0000
  1980 C28     21.6550  13.2780  26.3188   C.2       1 RES1   0.0000
  1981 C29     18.2682   3.8202  31.3090   C.2       1 RES1   0.0000
  1982 C30     18.2682   5.0972  31.1128   C.2       1 RES1   0.0000
  1983 C31     26.3188   5.0972  31.3090   C.2       1 RES1   0.0000
  1984 C32     26.3188   3.8202  31.1128   C.2       1 RES1   0.0000
  1985 C33     31.3090   0.4334  21.6550   C.2       1 RES1   0.0000
  1986 C34     31.1128   0.4334  22.9320   C.2       1 RES1   0.0000
  1987 C35     31.3090   8.4840  22.9320   C.2       1 RES1   0.0000
  1988 C36     31.1128   8.4840  21.6550   C.2       1 RES1   0.0000
  1989 C37     31.8494   4.3606  35.2362   C.2       1 RES1   0.0000
  1990 C38     30.5724   4.5568  35.2362   C.2       1 RES1   0.0000
  1991 C39     30.5724   4.3606  27.1856   C.2       1 RES1   0.0000
  1992 C40     31.8494   4.5568  27.1856   C.2       1 RES1   0.0000
  1993 C41     35.2362  14.0146  22.1954   C.2       1 RES1   0.0000
  1994 C42     35.2362  12.7376  22.3916   C.2       1 RES1   0.0000
  1995 C43     27.1856  12.7376  22.1954   C.2       1 RES1   0.0000
  1996 C44     27.1856  14.0146  22.3916   C.2       1 RES1   0.0000
  1997 C45     22.1954  17.4014  31.8494   C.2       1 RES1   0.0000
  1998 C46     22.3916  17.4014  30.5724   C.2       1 RES1   0.0000
  1999 C47     22.1954   9.3508  30.5724   C.2       1 RES1   0.0000
  2000 C48     22.3916   9.3508  31.8494   C.2       1 RES1   0.0000
  2001 H1      21.3215  14.3427  18.2700   H         1 RES1   0.0000
  2002 H2      23.2655  12.4095  18.2700   H         1 RES1   0.0000
  2003 H3      23.2655  14.3427  26.3170   H         1 RES1   0.0000
  2004 H4      21.3215  12.4095  26.3170   H         1 RES1   0.0000
  2005 H5      18.2700   3.4867  32.1775   H         1 RES1   0.0000
  2006 H6      18.2700   5.4307  30.2443   H         1 RES1   0.0000
  2007 H7      26.3170   5.4307  32.1775   H         1 RES1   0.0000
  2008 H8      26.3170   3.4867  30.2443   H         1 RES1   0.0000
  2009 H9      32.1775   0.4352  21.3215   H         1 RES1   0.0000
  2010 H10     30.2443   0.4352  23.2655   H         1 RES1   0.0000
  2011 H11     32.1775   8.4822  23.2655   H         1 RES1   0.0000
  2012 H12     30.2443   8.4822  21.3215   H         1 RES1   0.0000
  2013 H13     32.1829   3.4921  35.2344   H         1 RES1   0.0000
  2014 H14     30.2389   5.4253  35.2344   H         1 RES1   0.0000
  2015 H15     30.2389   3.4921  27.1874   H         1 RES1   0.0000
  2016 H16     32.1829   5.4253  27.1874   H         1 RES1   0.0000
  2017 H17     35.2344  14.3481  21.3269   H         1 RES1   0.0000
  2018 H18     35.2344  12.4041  23.2601   H         1 RES1   0.0000
  2019 H19     27.1874  12.4041  21.3269   H         1 RES1   0.0000
  2020 H20     27.1874  14.3481  23.2601   H         1 RES1   0.0000
  2021 H21     21.3269  17.3996  32.1829   H         1 RES1   0.0000
  2022 H22     23.2601  17.3996  30.2389   H         1 RES1   0.0000
  2023 H23     21.3269   9.3526  30.2389   H         1 RES1   0.0000
  2024 H24     23.2601   9.3526  32.1829   H         1 RES1   0.0000
  2025 C49     21.2341   6.0603  17.8348   C.2       1 RES1   0.0000
  2026 C50     23.3529   2.8571  17.8348   C.2       1 RES1   0.0000
  2027 C51     23.3529   6.0603  26.7522   C.2       1 RES1   0.0000
  2028 C52     21.2341   2.8571  26.7522   C.2       1 RES1   0.0000
  2029 C53     17.8348   3.3993  23.8951   C.2       1 RES1   0.0000
  2030 C54     17.8348   5.5181  20.6919   C.2       1 RES1   0.0000
  2031 C55     26.7522   5.5181  23.8951   C.2       1 RES1   0.0000
  2032 C56     26.7522   3.3993  20.6919   C.2       1 RES1   0.0000
  2033 C57     23.8951   0.0000  21.2341   C.2       1 RES1   0.0000
  2034 C58     20.6919   0.0000  23.3529   C.2       1 RES1   0.0000
  2035 C59     23.8951   8.9174  23.3529   C.2       1 RES1   0.0000
  2036 C60     20.6919   8.9174  21.2341   C.2       1 RES1   0.0000
  2037 C61     32.2703  11.7745  35.6696   C.2       1 RES1   0.0000
  2038 C62     30.1515  14.9777  35.6696   C.2       1 RES1   0.0000
  2039 C63     30.1515  11.7745  26.7522   C.2       1 RES1   0.0000
  2040 C64     32.2703  14.9777  26.7522   C.2       1 RES1   0.0000
  2041 C65     35.6696  14.4355  29.6093   C.2       1 RES1   0.0000
  2042 C66     35.6696  12.3167  32.8125   C.2       1 RES1   0.0000
  2043 C67     26.7522  12.3167  29.6093   C.2       1 RES1   0.0000
  2044 C68     26.7522  14.4355  32.8125   C.2       1 RES1   0.0000
  2045 C69     29.6093  17.8348  32.2703   C.2       1 RES1   0.0000
  2046 C70     32.8125  17.8348  30.1515   C.2       1 RES1   0.0000
  2047 C71     29.6093   8.9174  30.1515   C.2       1 RES1   0.0000
  2048 C72     32.8125   8.9174  32.2703   C.2       1 RES1   0.0000
  2049 C73     22.4130   5.1097  17.8366   C.2       1 RES1   0.0000
  2050 C74     22.1740   3.8077  17.8366   C.2       1 RES1   0.0000
  2051 C75     22.1740   5.1097  26.7504   C.2       1 RES1   0.0000
  2052 C76     22.4130   3.8077  26.7504   C.2       1 RES1   0.0000
  2053 C77     17.8366   4.5782  22.9445   C.2       1 RES1   0.0000
  2054 C78     17.8366   4.3392  21.6425   C.2       1 RES1   0.0000
  2055 C79     26.7504   4.3392  22.9445   C.2       1 RES1   0.0000
  2056 C80     26.7504   4.5782  21.6425   C.2       1 RES1   0.0000
  2057 C81     22.9445   0.0018  22.4130   C.2       1 RES1   0.0000
  2058 C82     21.6425   0.0018  22.1740   C.2       1 RES1   0.0000
  2059 C83     22.9445   8.9156  22.1740   C.2       1 RES1   0.0000
  2060 C84     21.6425   8.9156  22.4130   C.2       1 RES1   0.0000
  2061 C85     31.0914  12.7251  35.6678   C.2       1 RES1   0.0000
  2062 C86     31.3304  14.0271  35.6678   C.2       1 RES1   0.0000
  2063 C87     31.3304  12.7251  26.7540   C.2       1 RES1   0.0000
  2064 C88     31.0914  14.0271  26.7540   C.2       1 RES1   0.0000
  2065 C89     35.6678  13.2566  30.5599   C.2       1 RES1   0.0000
  2066 C90     35.6678  13.4956  31.8619   C.2       1 RES1   0.0000
  2067 C91     26.7540  13.4956  30.5599   C.2       1 RES1   0.0000
  2068 C92     26.7540  13.2566  31.8619   C.2       1 RES1   0.0000
  2069 C93     30.5599  17.8330  31.0914   C.2       1 RES1   0.0000
  2070 C94     31.8619  17.8330  31.3304   C.2       1 RES1   0.0000
  2071 C95     30.5599   8.9192  31.3304   C.2       1 RES1   0.0000
  2072 C96     31.8619   8.9192  31.0914   C.2       1 RES1   0.0000
  2073 H25     23.2851   5.4325  17.8366   H         1 RES1   0.0000
  2074 H26     21.3019   3.4849  17.8366   H         1 RES1   0.0000
  2075 H27     21.3019   5.4325  26.7504   H         1 RES1   0.0000
  2076 H28     23.2851   3.4849  26.7504   H         1 RES1   0.0000
  2077 H29     17.8366   5.4503  23.2673   H         1 RES1   0.0000
  2078 H30     17.8366   3.4671  21.3197   H         1 RES1   0.0000
  2079 H31     26.7504   3.4671  23.2673   H         1 RES1   0.0000
  2080 H32     26.7504   5.4503  21.3197   H         1 RES1   0.0000
  2081 H33     23.2673   0.0018  23.2851   H         1 RES1   0.0000
  2082 H34     21.3197   0.0018  21.3019   H         1 RES1   0.0000
  2083 H35     23.2673   8.9156  21.3019   H         1 RES1   0.0000
  2084 H36     21.3197   8.9156  23.2851   H         1 RES1   0.0000
  2085 H37     30.2193  12.4023  35.6678   H         1 RES1   0.0000
  2086 H38     32.2025  14.3499  35.6678   H         1 RES1   0.0000
  2087 H39     32.2025  12.4023  26.7540   H         1 RES1   0.0000
  2088 H40     30.2193  14.3499  26.7540   H         1 RES1   0.0000
  2089 H41     35.6678  12.3845  30.2371   H         1 RES1   0.0000
  2090 H42     35.6678  14.3677  32.1847   H         1 RES1   0.0000
  2091 H43     26.7540  14.3677  30.2371   H         1 RES1   0.0000
  2092 H44     26.7540  12.3845  32.1847   H         1 RES1   0.0000
  2093 H45     30.2371  17.8330  30.2193   H         1 RES1   0.0000
  2094 H46     32.1847  17.8330  32.2025   H         1 RES1   0.0000
  2095 H47     30.2371   8.9192  32.2025   H         1 RES1   0.0000
  2096 H48     32.1847   8.9192  30.2193   H         1 RES1   0.0000
  2097 O97     19.1992  10.5529  34.5157   O.3       1 RES1   0.0000
  2098 O98     25.3878  16.1993  34.5157   O.3       1 RES1   0.0000
  2099 O99     25.3878  10.5529  27.9061   O.3       1 RES1   0.0000
  2100 O101    34.5157   1.3644  28.3877   O.3       1 RES1   0.0000
  2101 O102    34.5157   7.5530  34.0341   O.3       1 RES1   0.0000
  2102 O103    27.9061   7.5530  28.3877   O.3       1 RES1   0.0000
  2103 O104    27.9061   1.3644  34.0341   O.3       1 RES1   0.0000
  2104 O105    28.3877  16.6809  19.1992   O.3       1 RES1   0.0000
  2105 O106    34.0341  16.6809  25.3878   O.3       1 RES1   0.0000
  2106 O107    28.3877  10.0713  25.3878   O.3       1 RES1   0.0000
  2107 O111    28.1166   7.2819  25.5983   O.3       1 RES1   0.0000
  2108 O112    34.3052   1.6355  25.5983   O.3       1 RES1   0.0000
  2109 O115    25.5983  10.2818  25.1167   O.3       1 RES1   0.0000
  2110 O116    25.5983  16.4704  19.4703   O.3       1 RES1   0.0000
  2111 O117    25.1167   1.1539  34.3052   O.3       1 RES1   0.0000
  2112 O118    19.4703   1.1539  28.1166   O.3       1 RES1   0.0000
  2113 O119    25.1167   7.7635  28.1166   O.3       1 RES1   0.0000
  2114 O155    25.3522   7.5174  25.3522   O.3       1 RES1   0.0000
  2115 O157    34.2696  10.3174  34.2696   O.3       1 RES1   0.0000
  2116 O158    28.1522  16.4348  34.2696   O.3       1 RES1   0.0000
  2117 O159    28.1522  10.3174  28.1522   O.3       1 RES1   0.0000
  2118 O160    34.2696  16.4348  28.1522   O.3       1 RES1   0.0000
  2119 Zr1     20.2933   9.1159  35.8815   Zr        1 RES1   0.0000
  2120 Zr1     38.1281   9.1159  18.0467   Zr        1 RES1   0.0000
  2121 Zr2     24.2937  -0.1985  35.8815   Zr        1 RES1   0.0000
  2122 Zr2     24.2937  17.6363  35.8815   Zr        1 RES1   0.0000
  2123 Zr4     38.1281  -0.1985  26.5403   Zr        1 RES1   0.0000
  2124 Zr4     38.1281  17.6363  26.5403   Zr        1 RES1   0.0000
  2125 Zr5     35.8815   2.4585  26.9507   Zr        1 RES1   0.0000
  2126 Zr6     35.8815   6.4589  35.4711   Zr        1 RES1   0.0000
  2127 Zr8     26.5403  20.2933  35.4711   Zr        1 RES1   0.0000
  2128 Zr9     26.9507   0.2119  38.1281   Zr        1 RES1   0.0000
  2129 Zr9     26.9507  18.0467  20.2933   Zr        1 RES1   0.0000
  2130 Zr10    35.4711  18.0467  24.2937   Zr        1 RES1   0.0000
  2131 Zr12    35.4711   8.7055  38.1281   Zr        1 RES1   0.0000
  2132 Zr14    29.2107  18.0333  35.4577   Zr        1 RES1   0.0000
  2133 Zr16    33.2111  18.0333  26.9641   Zr        1 RES1   0.0000
  2134 Zr17    35.4577  -2.4585  26.5537   Zr        1 RES1   0.0000
  2135 Zr18    35.4577  11.3759  35.8681   Zr        1 RES1   0.0000
  2136 Zr20    26.9641  -2.4585  35.8681   Zr        1 RES1   0.0000
  2137 Zr20    26.9641  15.3763  35.8681   Zr        1 RES1   0.0000
  2138 Zr21    26.5537  -0.2119  33.2111   Zr        1 RES1   0.0000
  2139 Zr22    35.8681  -0.2119  29.2107   Zr        1 RES1   0.0000
  2140 Zr22    35.8681  17.6229  29.2107   Zr        1 RES1   0.0000
  2141 Zr24    35.8681   9.1293  33.2111   Zr        1 RES1   0.0000
  2142 O2      23.0247  19.4667  17.9775   O.co2     1 RES1   0.0000
  2143 O4      21.5623  19.4667  26.6095   O.co2     1 RES1   0.0000
  2144 O6      17.9775   5.1899  37.3015   O.2       1 RES1   0.0000
  2145 O8      26.6095   3.7275  37.3015   O.2       1 RES1   0.0000
  2146 O10     37.3015   0.1427  23.0247   O.2       1 RES1   0.0000
  2147 O12     37.3015   8.7747  21.5623   O.2       1 RES1   0.0000
  2148 O14     30.4797  -1.6319  35.5269   O.2       1 RES1   0.0000
  2149 O16     31.9421  -1.6319  26.8949   O.2       1 RES1   0.0000
  2150 O50     23.3707  17.7046  20.0873   O.co2     1 RES1   0.0000
  2151 O52     21.2163  17.7046  24.4997   O.co2     1 RES1   0.0000
  2152 O54     20.0873   5.5359  35.5394   O.2       1 RES1   0.0000
  2153 O56     24.4997   3.3815  35.5394   O.2       1 RES1   0.0000
  2154 O58     35.5394   2.2525  23.3707   O.2       1 RES1   0.0000
  2155 O60     35.5394   6.6649  21.2163   O.2       1 RES1   0.0000
  2156 O62     30.1337   0.1302  33.4171   O.2       1 RES1   0.0000
  2157 O64     32.2881   0.1302  29.0047   O.2       1 RES1   0.0000
  2158 O81     27.1785  -1.6158  21.5587   O.2       1 RES1   0.0000
  2159 O82     35.2433  -1.6158  23.0283   O.2       1 RES1   0.0000
  2160 O85     31.9457   8.4911  37.2854   O.2       1 RES1   0.0000
  2161 O86     30.4761   0.4263  37.2854   O.2       1 RES1   0.0000
  2162 O89     37.2854  14.1109  26.3259   O.2       1 RES1   0.0000
  2163 O90     37.2854  12.6413  18.2611   O.2       1 RES1   0.0000
  2164 O93     26.3259  19.4506  31.9457   O.co2     1 RES1   0.0000
  2165 O94     18.2611  19.4506  30.4761   O.co2     1 RES1   0.0000
  2166 O97     37.0340  10.5529  16.6809   O.2       1 RES1   0.0000
  2167 O100    37.0340  16.1993  27.9061   O.2       1 RES1   0.0000
  2168 O104    27.9061  19.1992  34.0341   O.2       1 RES1   0.0000
  2169 O105    28.3877  -1.1539  37.0340   O.2       1 RES1   0.0000
  2170 O106    34.0341  -1.1539  25.3878   O.2       1 RES1   0.0000
  2171 O108    34.0341  10.0713  37.0340   O.2       1 RES1   0.0000
  2172 O109    34.3052   7.2819  36.8235   O.2       1 RES1   0.0000
  2173 O110    28.1166   1.6355  36.8235   O.2       1 RES1   0.0000
  2174 O113    36.8235  -1.3644  25.1167   O.2       1 RES1   0.0000
  2175 O113    36.8235  16.4704  25.1167   O.2       1 RES1   0.0000
  2176 O114    36.8235  10.2818  19.4703   O.2       1 RES1   0.0000
  2177 O116    25.5983  -1.3644  19.4703   O.2       1 RES1   0.0000
  2178 O117    25.1167  18.9887  34.3052   O.2       1 RES1   0.0000
  2179 O118    19.4703  18.9887  28.1166   O.2       1 RES1   0.0000
  2180 O120    19.4703   7.7635  16.4704   O.2       1 RES1   0.0000
  2181 O153    19.2348   7.5174  37.0696   O.2       1 RES1   0.0000
  2182 O153    37.0696   7.5174  19.2348   O.2       1 RES1   0.0000
  2183 O154    25.3522   1.4000  37.0696   O.2       1 RES1   0.0000
  2184 O154    25.3522  19.2348  19.2348   O.2       1 RES1   0.0000
  2185 O156    37.0696   1.4000  25.3522   O.2       1 RES1   0.0000
  2186 O158    28.1522  -1.4000  34.2696   O.2       1 RES1   0.0000
  2187 O160    34.2696  -1.4000  28.1522   O.2       1 RES1   0.0000
  2188 Zr2     24.2937  35.4711   0.2119   Zr        1 RES1   0.0000
  2189 Zr3     24.2937  26.9507   8.7055   Zr        1 RES1   0.0000
  2190 Zr7     26.5403  24.2937   9.1159   Zr        1 RES1   0.0000
  2191 Zr11    26.9507  26.5403   6.4589   Zr        1 RES1   0.0000
  2192 Zr12    35.4711  26.5403   2.4585   Zr        1 RES1   0.0000
  2193 Zr13    33.2111  26.5537  17.6229   Zr        1 RES1   0.0000
  2194 Zr15    29.2107  26.5537   9.1293   Zr        1 RES1   0.0000
  2195 Zr17    35.4577  33.2111   8.7189   Zr        1 RES1   0.0000
  2196 Zr18    35.4577  29.2107   0.1985   Zr        1 RES1   0.0000
  2197 Zr19    26.9641  29.2107   8.7189   Zr        1 RES1   0.0000
  2198 Zr20    26.9641  33.2111   0.1985   Zr        1 RES1   0.0000
  2199 Zr21    26.5537  35.4577  15.3763   Zr        1 RES1   0.0000
  2200 Zr23    26.5537  26.9641  11.3759   Zr        1 RES1   0.0000
  2201 O1      21.5623  25.1203   0.1427   O.co2     1 RES1   0.0000
  2202 O3      23.0247  25.1203   8.7747   O.co2     1 RES1   0.0000
  2203 O5      17.9775  21.5623   7.2855   O.co2     1 RES1   0.0000
  2204 O6      17.9775  23.0247   1.6319   O.co2     1 RES1   0.0000
  2205 O7      26.6095  23.0247   7.2855   O.co2     1 RES1   0.0000
  2206 O8      26.6095  21.5623   1.6319   O.co2     1 RES1   0.0000
  2207 O9      25.1203  17.9775   3.7275   O.co2     1 RES1   0.0000
  2208 O11     25.1203  26.6095   5.1899   O.co2     1 RES1   0.0000
  2209 O13     31.9421  28.3841  17.6921   O.co2     1 RES1   0.0000
  2210 O14     30.4797  34.0377  17.6921   O.co2     1 RES1   0.0000
  2211 O15     30.4797  28.3841   9.0601   O.co2     1 RES1   0.0000
  2212 O16     31.9421  34.0377   9.0601   O.co2     1 RES1   0.0000
  2213 O17     35.5269  31.9421  10.5493   O.co2     1 RES1   0.0000
  2214 O18     35.5269  30.4797  16.2029   O.co2     1 RES1   0.0000
  2215 O19     26.8949  30.4797  10.5493   O.co2     1 RES1   0.0000
  2216 O20     26.8949  31.9421  16.2029   O.co2     1 RES1   0.0000
  2217 O21     28.3841  35.5269  14.1073   O.co2     1 RES1   0.0000
  2218 O22     34.0377  35.5269  12.6449   O.co2     1 RES1   0.0000
  2219 O23     28.3841  26.8949  12.6449   O.co2     1 RES1   0.0000
  2220 O24     34.0377  26.8949  14.1073   O.co2     1 RES1   0.0000
  2221 O25     21.2305  28.9744   0.4387   O.co2     1 RES1   0.0000
  2222 O26     23.3565  33.4474   0.4387   O.co2     1 RES1   0.0000
  2223 O27     23.3565  28.9744   8.4787   O.co2     1 RES1   0.0000
  2224 O28     21.2305  33.4474   8.4787   O.co2     1 RES1   0.0000
  2225 O29     18.2735  21.2305  11.1396   O.co2     1 RES1   0.0000
  2226 O30     18.2735  23.3565  15.6126   O.co2     1 RES1   0.0000
  2227 O31     26.3135  23.3565  11.1396   O.co2     1 RES1   0.0000
  2228 O32     26.3135  21.2305  15.6126   O.co2     1 RES1   0.0000
  2229 O33     28.9744  18.2735   3.3957   O.co2     1 RES1   0.0000
  2230 O34     33.4474  18.2735   5.5217   O.co2     1 RES1   0.0000
  2231 O35     28.9744  26.3135   5.5217   O.co2     1 RES1   0.0000
  2232 O36     33.4474  26.3135   3.3957   O.co2     1 RES1   0.0000
  2233 O37     32.2739  24.5300  17.3961   O.co2     1 RES1   0.0000
  2234 O38     30.1479  20.0570  17.3961   O.co2     1 RES1   0.0000
  2235 O39     30.1479  24.5300   9.3561   O.co2     1 RES1   0.0000
  2236 O40     32.2739  20.0570   9.3561   O.co2     1 RES1   0.0000
  2237 O41     35.2309  32.2739   6.6952   O.co2     1 RES1   0.0000
  2238 O42     35.2309  30.1479   2.2222   O.co2     1 RES1   0.0000
  2239 O43     27.1909  30.1479   6.6952   O.co2     1 RES1   0.0000
  2240 O44     27.1909  32.2739   2.2222   O.co2     1 RES1   0.0000
  2241 O45     24.5300  35.2309  14.4391   O.co2     1 RES1   0.0000
  2242 O46     20.0570  35.2309  12.3131   O.co2     1 RES1   0.0000
  2243 O47     24.5300  27.1909  12.3131   O.co2     1 RES1   0.0000
  2244 O48     20.0570  27.1909  14.4391   O.co2     1 RES1   0.0000
  2245 O49     21.2163  26.8824   2.2525   O.co2     1 RES1   0.0000
  2246 O51     23.3707  26.8824   6.6649   O.co2     1 RES1   0.0000
  2247 O53     20.0873  21.2163   9.0476   O.co2     1 RES1   0.0000
  2248 O54     20.0873  23.3707  -0.1302   O.co2     1 RES1   0.0000
  2249 O55     24.4997  23.3707   9.0476   O.co2     1 RES1   0.0000
  2250 O56     24.4997  21.2163  -0.1302   O.co2     1 RES1   0.0000
  2251 O57     26.8824  20.0873   3.3815   O.co2     1 RES1   0.0000
  2252 O59     26.8824  24.4997   5.5359   O.co2     1 RES1   0.0000
  2253 O61     32.2881  26.6220  15.5823   O.co2     1 RES1   0.0000
  2254 O62     30.1337  35.7998  15.5823   O.co2     1 RES1   0.0000
  2255 O63     30.1337  26.6220  11.1699   O.co2     1 RES1   0.0000
  2256 O64     32.2881  35.7998  11.1699   O.co2     1 RES1   0.0000
  2257 O65     33.4171  32.2881   8.7872   O.co2     1 RES1   0.0000
  2258 O66     33.4171  30.1337  17.9650   O.co2     1 RES1   0.0000
  2259 O67     29.0047  30.1337   8.7872   O.co2     1 RES1   0.0000
  2260 O68     29.0047  32.2881  17.9650   O.co2     1 RES1   0.0000
  2261 O69     26.6220  33.4171  14.4533   O.co2     1 RES1   0.0000
  2262 O70     35.7998  33.4171  12.2989   O.co2     1 RES1   0.0000
  2263 O71     26.6220  29.0047  12.2989   O.co2     1 RES1   0.0000
  2264 O72     35.7998  29.0047  14.4533   O.co2     1 RES1   0.0000
  2265 O73     21.5587  27.1785  16.2190   O.co2     1 RES1   0.0000
  2266 O74     23.0283  35.2433  16.2190   O.co2     1 RES1   0.0000
  2267 O75     23.0283  27.1785  10.5332   O.co2     1 RES1   0.0000
  2268 O76     21.5587  35.2433  10.5332   O.co2     1 RES1   0.0000
  2269 O77     34.0538  21.5587   9.3437   O.co2     1 RES1   0.0000
  2270 O78     34.0538  23.0283  17.4085   O.co2     1 RES1   0.0000
  2271 O79     28.3680  23.0283   9.3437   O.co2     1 RES1   0.0000
  2272 O80     28.3680  21.5587  17.4085   O.co2     1 RES1   0.0000
  2273 O81     27.1785  34.0538   3.7239   O.co2     1 RES1   0.0000
  2274 O82     35.2433  34.0538   5.1935   O.co2     1 RES1   0.0000
  2275 O83     27.1785  28.3680   5.1935   O.co2     1 RES1   0.0000
  2276 O84     35.2433  28.3680   3.7239   O.co2     1 RES1   0.0000
  2277 O85     31.9457  26.3259   1.6158   O.co2     1 RES1   0.0000
  2278 O86     30.4761  18.2611   1.6158   O.co2     1 RES1   0.0000
  2279 O87     30.4761  26.3259   7.3016   O.co2     1 RES1   0.0000
  2280 O88     31.9457  18.2611   7.3016   O.co2     1 RES1   0.0000
  2281 O91     25.1364  30.4761   8.4911   O.co2     1 RES1   0.0000
  2282 O92     25.1364  31.9457   0.4263   O.co2     1 RES1   0.0000
  2283 O95     26.3259  25.1364  12.6413   O.co2     1 RES1   0.0000
  2284 O96     18.2611  25.1364  14.1109   O.co2     1 RES1   0.0000
  2285 C1      20.6955  30.1248   0.4280   C.2       1 RES1   0.0000
  2286 C2      23.8915  32.2970   0.4280   C.2       1 RES1   0.0000
  2287 C3      23.8915  30.1248   8.4894   C.2       1 RES1   0.0000
  2288 C4      20.6955  32.2970   8.4894   C.2       1 RES1   0.0000
  2289 C5      18.2628  20.6955  12.2900   C.2       1 RES1   0.0000
  2290 C6      18.2628  23.8915  14.4622   C.2       1 RES1   0.0000
  2291 C7      26.3242  23.8915  12.2900   C.2       1 RES1   0.0000
  2292 C8      26.3242  20.6955  14.4622   C.2       1 RES1   0.0000
  2293 C9      30.1248  18.2628   2.8607   C.2       1 RES1   0.0000
  2294 C10     32.2970  18.2628   6.0567   C.2       1 RES1   0.0000
  2295 C11     30.1248  26.3242   6.0567   C.2       1 RES1   0.0000
  2296 C12     32.2970  26.3242   2.8607   C.2       1 RES1   0.0000
  2297 C13     32.8089  23.3796  17.4068   C.2       1 RES1   0.0000
  2298 C14     29.6129  21.2074  17.4068   C.2       1 RES1   0.0000
  2299 C15     29.6129  23.3796   9.3454   C.2       1 RES1   0.0000
  2300 C16     32.8089  21.2074   9.3454   C.2       1 RES1   0.0000
  2301 C17     35.2416  32.8089   5.5448   C.2       1 RES1   0.0000
  2302 C18     35.2416  29.6129   3.3726   C.2       1 RES1   0.0000
  2303 C19     27.1802  29.6129   5.5448   C.2       1 RES1   0.0000
  2304 C20     27.1802  32.8089   3.3726   C.2       1 RES1   0.0000
  2305 C21     23.3796  35.2416  14.9741   C.2       1 RES1   0.0000
  2306 C22     21.2074  35.2416  11.7781   C.2       1 RES1   0.0000
  2307 C23     23.3796  27.1802  11.7781   C.2       1 RES1   0.0000
  2308 C24     21.2074  27.1802  14.9741   C.2       1 RES1   0.0000
  2309 C25     21.6550  31.3090   0.4334   C.2       1 RES1   0.0000
  2310 C26     22.9320  31.1128   0.4334   C.2       1 RES1   0.0000
  2311 C27     22.9320  31.3090   8.4840   C.2       1 RES1   0.0000
  2312 C28     21.6550  31.1128   8.4840   C.2       1 RES1   0.0000
  2313 C29     18.2682  21.6550  13.4742   C.2       1 RES1   0.0000
  2314 C30     18.2682  22.9320  13.2780   C.2       1 RES1   0.0000
  2315 C31     26.3188  22.9320  13.4742   C.2       1 RES1   0.0000
  2316 C32     26.3188  21.6550  13.2780   C.2       1 RES1   0.0000
  2317 C33     31.3090  18.2682   3.8202   C.2       1 RES1   0.0000
  2318 C34     31.1128  18.2682   5.0972   C.2       1 RES1   0.0000
  2319 C35     31.3090  26.3188   5.0972   C.2       1 RES1   0.0000
  2320 C36     31.1128  26.3188   3.8202   C.2       1 RES1   0.0000
  2321 C37     31.8494  22.1954  17.4014   C.2       1 RES1   0.0000
  2322 C38     30.5724  22.3916  17.4014   C.2       1 RES1   0.0000
  2323 C39     30.5724  22.1954   9.3508   C.2       1 RES1   0.0000
  2324 C40     31.8494  22.3916   9.3508   C.2       1 RES1   0.0000
  2325 C41     35.2362  31.8494   4.3606   C.2       1 RES1   0.0000
  2326 C42     35.2362  30.5724   4.5568   C.2       1 RES1   0.0000
  2327 C43     27.1856  30.5724   4.3606   C.2       1 RES1   0.0000
  2328 C44     27.1856  31.8494   4.5568   C.2       1 RES1   0.0000
  2329 C45     22.1954  35.2362  14.0146   C.2       1 RES1   0.0000
  2330 C46     22.3916  35.2362  12.7376   C.2       1 RES1   0.0000
  2331 C47     22.1954  27.1856  12.7376   C.2       1 RES1   0.0000
  2332 C48     22.3916  27.1856  14.0146   C.2       1 RES1   0.0000
  2333 H1      21.3215  32.1775   0.4352   H         1 RES1   0.0000
  2334 H2      23.2655  30.2443   0.4352   H         1 RES1   0.0000
  2335 H3      23.2655  32.1775   8.4822   H         1 RES1   0.0000
  2336 H4      21.3215  30.2443   8.4822   H         1 RES1   0.0000
  2337 H5      18.2700  21.3215  14.3427   H         1 RES1   0.0000
  2338 H6      18.2700  23.2655  12.4095   H         1 RES1   0.0000
  2339 H7      26.3170  23.2655  14.3427   H         1 RES1   0.0000
  2340 H8      26.3170  21.3215  12.4095   H         1 RES1   0.0000
  2341 H9      32.1775  18.2700   3.4867   H         1 RES1   0.0000
  2342 H10     30.2443  18.2700   5.4307   H         1 RES1   0.0000
  2343 H11     32.1775  26.3170   5.4307   H         1 RES1   0.0000
  2344 H12     30.2443  26.3170   3.4867   H         1 RES1   0.0000
  2345 H13     32.1829  21.3269  17.3996   H         1 RES1   0.0000
  2346 H14     30.2389  23.2601  17.3996   H         1 RES1   0.0000
  2347 H15     30.2389  21.3269   9.3526   H         1 RES1   0.0000
  2348 H16     32.1829  23.2601   9.3526   H         1 RES1   0.0000
  2349 H17     35.2344  32.1829   3.4921   H         1 RES1   0.0000
  2350 H18     35.2344  30.2389   5.4253   H         1 RES1   0.0000
  2351 H19     27.1874  30.2389   3.4921   H         1 RES1   0.0000
  2352 H20     27.1874  32.1829   5.4253   H         1 RES1   0.0000
  2353 H21     21.3269  35.2344  14.3481   H         1 RES1   0.0000
  2354 H22     23.2601  35.2344  12.4041   H         1 RES1   0.0000
  2355 H23     21.3269  27.1874  12.4041   H         1 RES1   0.0000
  2356 H24     23.2601  27.1874  14.3481   H         1 RES1   0.0000
  2357 C49     21.2341  23.8951   0.0000   C.2       1 RES1   0.0000
  2358 C50     23.3529  20.6919   0.0000   C.2       1 RES1   0.0000
  2359 C51     23.3529  23.8951   8.9174   C.2       1 RES1   0.0000
  2360 C52     21.2341  20.6919   8.9174   C.2       1 RES1   0.0000
  2361 C53     17.8348  21.2341   6.0603   C.2       1 RES1   0.0000
  2362 C54     17.8348  23.3529   2.8571   C.2       1 RES1   0.0000
  2363 C55     26.7522  23.3529   6.0603   C.2       1 RES1   0.0000
  2364 C56     26.7522  21.2341   2.8571   C.2       1 RES1   0.0000
  2365 C57     23.8951  17.8348   3.3993   C.2       1 RES1   0.0000
  2366 C58     20.6919  17.8348   5.5181   C.2       1 RES1   0.0000
  2367 C59     23.8951  26.7522   5.5181   C.2       1 RES1   0.0000
  2368 C60     20.6919  26.7522   3.3993   C.2       1 RES1   0.0000
  2369 C61     32.2703  29.6093  17.8348   C.2       1 RES1   0.0000
  2370 C62     30.1515  32.8125  17.8348   C.2       1 RES1   0.0000
  2371 C63     30.1515  29.6093   8.9174   C.2       1 RES1   0.0000
  2372 C64     32.2703  32.8125   8.9174   C.2       1 RES1   0.0000
  2373 C65     35.6696  32.2703  11.7745   C.2       1 RES1   0.0000
  2374 C66     35.6696  30.1515  14.9777   C.2       1 RES1   0.0000
  2375 C67     26.7522  30.1515  11.7745   C.2       1 RES1   0.0000
  2376 C68     26.7522  32.2703  14.9777   C.2       1 RES1   0.0000
  2377 C69     29.6093  35.6696  14.4355   C.2       1 RES1   0.0000
  2378 C70     32.8125  35.6696  12.3167   C.2       1 RES1   0.0000
  2379 C71     29.6093  26.7522  12.3167   C.2       1 RES1   0.0000
  2380 C72     32.8125  26.7522  14.4355   C.2       1 RES1   0.0000
  2381 C73     22.4130  22.9445   0.0018   C.2       1 RES1   0.0000
  2382 C74     22.1740  21.6425   0.0018   C.2       1 RES1   0.0000
  2383 C75     22.1740  22.9445   8.9156   C.2       1 RES1   0.0000
  2384 C76     22.4130  21.6425   8.9156   C.2       1 RES1   0.0000
  2385 C77     17.8366  22.4130   5.1097   C.2       1 RES1   0.0000
  2386 C78     17.8366  22.1740   3.8077   C.2       1 RES1   0.0000
  2387 C79     26.7504  22.1740   5.1097   C.2       1 RES1   0.0000
  2388 C80     26.7504  22.4130   3.8077   C.2       1 RES1   0.0000
  2389 C81     22.9445  17.8366   4.5782   C.2       1 RES1   0.0000
  2390 C82     21.6425  17.8366   4.3392   C.2       1 RES1   0.0000
  2391 C83     22.9445  26.7504   4.3392   C.2       1 RES1   0.0000
  2392 C84     21.6425  26.7504   4.5782   C.2       1 RES1   0.0000
  2393 C85     31.0914  30.5599  17.8330   C.2       1 RES1   0.0000
  2394 C86     31.3304  31.8619  17.8330   C.2       1 RES1   0.0000
  2395 C87     31.3304  30.5599   8.9192   C.2       1 RES1   0.0000
  2396 C88     31.0914  31.8619   8.9192   C.2       1 RES1   0.0000
  2397 C89     35.6678  31.0914  12.7251   C.2       1 RES1   0.0000
  2398 C90     35.6678  31.3304  14.0271   C.2       1 RES1   0.0000
  2399 C91     26.7540  31.3304  12.7251   C.2       1 RES1   0.0000
  2400 C92     26.7540  31.0914  14.0271   C.2       1 RES1   0.0000
  2401 C93     30.5599  35.6678  13.2566   C.2       1 RES1   0.0000
  2402 C94     31.8619  35.6678  13.4956   C.2       1 RES1   0.0000
  2403 C95     30.5599  26.7540  13.4956   C.2       1 RES1   0.0000
  2404 C96     31.8619  26.7540  13.2566   C.2       1 RES1   0.0000
  2405 H25     23.2851  23.2673   0.0018   H         1 RES1   0.0000
  2406 H26     21.3019  21.3197   0.0018   H         1 RES1   0.0000
  2407 H27     21.3019  23.2673   8.9156   H         1 RES1   0.0000
  2408 H28     23.2851  21.3197   8.9156   H         1 RES1   0.0000
  2409 H29     17.8366  23.2851   5.4325   H         1 RES1   0.0000
  2410 H30     17.8366  21.3019   3.4849   H         1 RES1   0.0000
  2411 H31     26.7504  21.3019   5.4325   H         1 RES1   0.0000
  2412 H32     26.7504  23.2851   3.4849   H         1 RES1   0.0000
  2413 H33     23.2673  17.8366   5.4503   H         1 RES1   0.0000
  2414 H34     21.3197  17.8366   3.4671   H         1 RES1   0.0000
  2415 H35     23.2673  26.7504   3.4671   H         1 RES1   0.0000
  2416 H36     21.3197  26.7504   5.4503   H         1 RES1   0.0000
  2417 H37     30.2193  30.2371  17.8330   H         1 RES1   0.0000
  2418 H38     32.2025  32.1847  17.8330   H         1 RES1   0.0000
  2419 H39     32.2025  30.2371   8.9192   H         1 RES1   0.0000
  2420 H40     30.2193  32.1847   8.9192   H         1 RES1   0.0000
  2421 H41     35.6678  30.2193  12.4023   H         1 RES1   0.0000
  2422 H42     35.6678  32.2025  14.3499   H         1 RES1   0.0000
  2423 H43     26.7540  32.2025  12.4023   H         1 RES1   0.0000
  2424 H44     26.7540  30.2193  14.3499   H         1 RES1   0.0000
  2425 H45     30.2371  35.6678  12.3845   H         1 RES1   0.0000
  2426 H46     32.1847  35.6678  14.3677   H         1 RES1   0.0000
  2427 H47     30.2371  26.7540  14.3677   H         1 RES1   0.0000
  2428 H48     32.1847  26.7540  12.3845   H         1 RES1   0.0000
  2429 O98     25.3878  34.0341  16.6809   O.3       1 RES1   0.0000
  2430 O99     25.3878  28.3877  10.0713   O.3       1 RES1   0.0000
  2431 O101    34.5157  19.1992  10.5529   O.3       1 RES1   0.0000
  2432 O102    34.5157  25.3878  16.1993   O.3       1 RES1   0.0000
  2433 O103    27.9061  25.3878  10.5529   O.3       1 RES1   0.0000
  2434 O105    28.3877  34.5157   1.3644   O.3       1 RES1   0.0000
  2435 O106    34.0341  34.5157   7.5530   O.3       1 RES1   0.0000
  2436 O107    28.3877  27.9061   7.5530   O.3       1 RES1   0.0000
  2437 O108    34.0341  27.9061   1.3644   O.3       1 RES1   0.0000
  2438 O109    34.3052  25.1167   1.1539   O.3       1 RES1   0.0000
  2439 O110    28.1166  19.4703   1.1539   O.3       1 RES1   0.0000
  2440 O111    28.1166  25.1167   7.7635   O.3       1 RES1   0.0000
  2441 O112    34.3052  19.4703   7.7635   O.3       1 RES1   0.0000
  2442 O115    25.5983  28.1166   7.2819   O.3       1 RES1   0.0000
  2443 O116    25.5983  34.3052   1.6355   O.3       1 RES1   0.0000
  2444 O119    25.1167  25.5983  10.2818   O.3       1 RES1   0.0000
  2445 O155    25.3522  25.3522   7.5174   O.3       1 RES1   0.0000
  2446 O157    34.2696  28.1522  16.4348   O.3       1 RES1   0.0000
  2447 O158    28.1522  34.2696  16.4348   O.3       1 RES1   0.0000
  2448 O159    28.1522  28.1522  10.3174   O.3       1 RES1   0.0000
  2449 O160    34.2696  34.2696  10.3174   O.3       1 RES1   0.0000
  2450 Zr1     38.1281  26.9507   0.2119   Zr        1 RES1   0.0000
  2451 Zr2     24.2937  35.4711  18.0467   Zr        1 RES1   0.0000
  2452 Zr4     38.1281  35.4711   8.7055   Zr        1 RES1   0.0000
  2453 Zr5     18.0467  38.1281   9.1159   Zr        1 RES1   0.0000
  2454 Zr5     35.8815  20.2933   9.1159   Zr        1 RES1   0.0000
  2455 Zr6     35.8815  24.2937  -0.1985   Zr        1 RES1   0.0000
  2456 Zr6     35.8815  24.2937  17.6363   Zr        1 RES1   0.0000
  2457 Zr8     26.5403  38.1281  -0.1985   Zr        1 RES1   0.0000
  2458 Zr8     26.5403  38.1281  17.6363   Zr        1 RES1   0.0000
  2459 Zr9     26.9507  35.8815   2.4585   Zr        1 RES1   0.0000
  2460 Zr10    35.4711  35.8815   6.4589   Zr        1 RES1   0.0000
  2461 Zr12    35.4711  26.5403  20.2933   Zr        1 RES1   0.0000
  2462 Zr13    33.2111  26.5537  -0.2119   Zr        1 RES1   0.0000
  2463 Zr14    29.2107  35.8681  -0.2119   Zr        1 RES1   0.0000
  2464 Zr14    29.2107  35.8681  17.6229   Zr        1 RES1   0.0000
  2465 Zr16    33.2111  35.8681   9.1293   Zr        1 RES1   0.0000
  2466 Zr18    35.4577  29.2107  18.0333   Zr        1 RES1   0.0000
  2467 Zr20    26.9641  33.2111  18.0333   Zr        1 RES1   0.0000
  2468 Zr21    26.5537  35.4577  -2.4585   Zr        1 RES1   0.0000
  2469 Zr22    35.8681  35.4577  11.3759   Zr        1 RES1   0.0000
  2470 Zr24    35.8681  26.9641  -2.4585   Zr        1 RES1   0.0000
  2471 Zr24    35.8681  26.9641  15.3763   Zr        1 RES1   0.0000
  2472 O2      23.0247  37.3015   0.1427   O.2       1 RES1   0.0000
  2473 O4      21.5623  37.3015   8.7747   O.2       1 RES1   0.0000
  2474 O6      17.9775  23.0247  19.4667   O.co2     1 RES1   0.0000
  2475 O8      26.6095  21.5623  19.4667   O.co2     1 RES1   0.0000
  2476 O10     37.3015  17.9775   5.1899   O.2       1 RES1   0.0000
  2477 O12     37.3015  26.6095   3.7275   O.2       1 RES1   0.0000
  2478 O18     35.5269  30.4797  -1.6319   O.2       1 RES1   0.0000
  2479 O20     26.8949  31.9421  -1.6319   O.2       1 RES1   0.0000
  2480 O50     23.3707  35.5394   2.2525   O.2       1 RES1   0.0000
  2481 O52     21.2163  35.5394   6.6649   O.2       1 RES1   0.0000
  2482 O54     20.0873  23.3707  17.7046   O.co2     1 RES1   0.0000
  2483 O56     24.4997  21.2163  17.7046   O.co2     1 RES1   0.0000
  2484 O58     35.5394  20.0873   5.5359   O.2       1 RES1   0.0000
  2485 O60     35.5394  24.4997   3.3815   O.2       1 RES1   0.0000
  2486 O66     33.4171  30.1337   0.1302   O.2       1 RES1   0.0000
  2487 O68     29.0047  32.2881   0.1302   O.2       1 RES1   0.0000
  2488 O73     21.5587  27.1785  -1.6158   O.2       1 RES1   0.0000
  2489 O74     23.0283  35.2433  -1.6158   O.2       1 RES1   0.0000
  2490 O85     31.9457  26.3259  19.4506   O.co2     1 RES1   0.0000
  2491 O86     30.4761  18.2611  19.4506   O.co2     1 RES1   0.0000
  2492 O89     37.2854  31.9457   8.4911   O.2       1 RES1   0.0000
  2493 O90     37.2854  30.4761   0.4263   O.2       1 RES1   0.0000
  2494 O93     26.3259  37.2854  14.1109   O.2       1 RES1   0.0000
  2495 O94     18.2611  37.2854  12.6413   O.2       1 RES1   0.0000
  2496 O97     37.0340  28.3877  -1.1539   O.2       1 RES1   0.0000
  2497 O98     25.3878  34.0341  -1.1539   O.2       1 RES1   0.0000
  2498 O100    37.0340  34.0341  10.0713   O.2       1 RES1   0.0000
  2499 O101    16.6809  37.0340  10.5529   O.2       1 RES1   0.0000
  2500 O104    27.9061  37.0340  16.1993   O.2       1 RES1   0.0000
  2501 O108    34.0341  27.9061  19.1992   O.2       1 RES1   0.0000
  2502 O109    34.3052  25.1167  18.9887   O.2       1 RES1   0.0000
  2503 O110    28.1166  19.4703  18.9887   O.2       1 RES1   0.0000
  2504 O113    36.8235  34.3052   7.2819   O.2       1 RES1   0.0000
  2505 O114    36.8235  28.1166   1.6355   O.2       1 RES1   0.0000
  2506 O117    25.1167  36.8235  -1.3644   O.2       1 RES1   0.0000
  2507 O117    25.1167  36.8235  16.4704   O.2       1 RES1   0.0000
  2508 O118    19.4703  36.8235  10.2818   O.2       1 RES1   0.0000
  2509 O120    19.4703  25.5983  -1.3644   O.2       1 RES1   0.0000
  2510 O153    37.0696  25.3522   1.4000   O.2       1 RES1   0.0000
  2511 O154    25.3522  37.0696   1.4000   O.2       1 RES1   0.0000
  2512 O156    19.2348  37.0696   7.5174   O.2       1 RES1   0.0000
  2513 O156    37.0696  19.2348   7.5174   O.2       1 RES1   0.0000
  2514 O157    34.2696  28.1522  -1.4000   O.2       1 RES1   0.0000
  2515 O158    28.1522  34.2696  -1.4000   O.2       1 RES1   0.0000
  2516 Zr3     24.2937  26.9507  26.5403   Zr        1 RES1   0.0000
  2517 Zr7     26.5403  24.2937  26.9507   Zr        1 RES1   0.0000
  2518 Zr11    26.9507  26.5403  24.2937   Zr        1 RES1   0.0000
  2519 Zr13    33.2111  26.5537  35.4577   Zr        1 RES1   0.0000
  2520 Zr15    29.2107  26.5537  26.9641   Zr        1 RES1   0.0000
  2521 Zr17    35.4577  33.2111  26.5537   Zr        1 RES1   0.0000
  2522 Zr19    26.9641  29.2107  26.5537   Zr        1 RES1   0.0000
  2523 Zr21    26.5537  35.4577  33.2111   Zr        1 RES1   0.0000
  2524 Zr23    26.5537  26.9641  29.2107   Zr        1 RES1   0.0000
  2525 O1      21.5623  25.1203  17.9775   O.co2     1 RES1   0.0000
  2526 O3      23.0247  25.1203  26.6095   O.co2     1 RES1   0.0000
  2527 O5      17.9775  21.5623  25.1203   O.co2     1 RES1   0.0000
  2528 O7      26.6095  23.0247  25.1203   O.co2     1 RES1   0.0000
  2529 O9      25.1203  17.9775  21.5623   O.co2     1 RES1   0.0000
  2530 O11     25.1203  26.6095  23.0247   O.co2     1 RES1   0.0000
  2531 O13     31.9421  28.3841  35.5269   O.co2     1 RES1   0.0000
  2532 O14     30.4797  34.0377  35.5269   O.co2     1 RES1   0.0000
  2533 O15     30.4797  28.3841  26.8949   O.co2     1 RES1   0.0000
  2534 O16     31.9421  34.0377  26.8949   O.co2     1 RES1   0.0000
  2535 O17     35.5269  31.9421  28.3841   O.co2     1 RES1   0.0000
  2536 O18     35.5269  30.4797  34.0377   O.co2     1 RES1   0.0000
  2537 O19     26.8949  30.4797  28.3841   O.co2     1 RES1   0.0000
  2538 O20     26.8949  31.9421  34.0377   O.co2     1 RES1   0.0000
  2539 O21     28.3841  35.5269  31.9421   O.co2     1 RES1   0.0000
  2540 O22     34.0377  35.5269  30.4797   O.co2     1 RES1   0.0000
  2541 O23     28.3841  26.8949  30.4797   O.co2     1 RES1   0.0000
  2542 O24     34.0377  26.8949  31.9421   O.co2     1 RES1   0.0000
  2543 O25     21.2305  28.9744  18.2735   O.co2     1 RES1   0.0000
  2544 O26     23.3565  33.4474  18.2735   O.co2     1 RES1   0.0000
  2545 O27     23.3565  28.9744  26.3135   O.co2     1 RES1   0.0000
  2546 O28     21.2305  33.4474  26.3135   O.co2     1 RES1   0.0000
  2547 O29     18.2735  21.2305  28.9744   O.co2     1 RES1   0.0000
  2548 O30     18.2735  23.3565  33.4474   O.co2     1 RES1   0.0000
  2549 O31     26.3135  23.3565  28.9744   O.co2     1 RES1   0.0000
  2550 O32     26.3135  21.2305  33.4474   O.co2     1 RES1   0.0000
  2551 O33     28.9744  18.2735  21.2305   O.co2     1 RES1   0.0000
  2552 O34     33.4474  18.2735  23.3565   O.co2     1 RES1   0.0000
  2553 O35     28.9744  26.3135  23.3565   O.co2     1 RES1   0.0000
  2554 O36     33.4474  26.3135  21.2305   O.co2     1 RES1   0.0000
  2555 O37     32.2739  24.5300  35.2309   O.co2     1 RES1   0.0000
  2556 O38     30.1479  20.0570  35.2309   O.co2     1 RES1   0.0000
  2557 O39     30.1479  24.5300  27.1909   O.co2     1 RES1   0.0000
  2558 O40     32.2739  20.0570  27.1909   O.co2     1 RES1   0.0000
  2559 O41     35.2309  32.2739  24.5300   O.co2     1 RES1   0.0000
  2560 O42     35.2309  30.1479  20.0570   O.co2     1 RES1   0.0000
  2561 O43     27.1909  30.1479  24.5300   O.co2     1 RES1   0.0000
  2562 O44     27.1909  32.2739  20.0570   O.co2     1 RES1   0.0000
  2563 O45     24.5300  35.2309  32.2739   O.co2     1 RES1   0.0000
  2564 O46     20.0570  35.2309  30.1479   O.co2     1 RES1   0.0000
  2565 O47     24.5300  27.1909  30.1479   O.co2     1 RES1   0.0000
  2566 O48     20.0570  27.1909  32.2739   O.co2     1 RES1   0.0000
  2567 O49     21.2163  26.8824  20.0873   O.co2     1 RES1   0.0000
  2568 O51     23.3707  26.8824  24.4997   O.co2     1 RES1   0.0000
  2569 O53     20.0873  21.2163  26.8824   O.co2     1 RES1   0.0000
  2570 O55     24.4997  23.3707  26.8824   O.co2     1 RES1   0.0000
  2571 O57     26.8824  20.0873  21.2163   O.co2     1 RES1   0.0000
  2572 O59     26.8824  24.4997  23.3707   O.co2     1 RES1   0.0000
  2573 O61     32.2881  26.6220  33.4171   O.co2     1 RES1   0.0000
  2574 O62     30.1337  35.7998  33.4171   O.co2     1 RES1   0.0000
  2575 O63     30.1337  26.6220  29.0047   O.co2     1 RES1   0.0000
  2576 O64     32.2881  35.7998  29.0047   O.co2     1 RES1   0.0000
  2577 O65     33.4171  32.2881  26.6220   O.co2     1 RES1   0.0000
  2578 O66     33.4171  30.1337  35.7998   O.co2     1 RES1   0.0000
  2579 O67     29.0047  30.1337  26.6220   O.co2     1 RES1   0.0000
  2580 O68     29.0047  32.2881  35.7998   O.co2     1 RES1   0.0000
  2581 O69     26.6220  33.4171  32.2881   O.co2     1 RES1   0.0000
  2582 O70     35.7998  33.4171  30.1337   O.co2     1 RES1   0.0000
  2583 O71     26.6220  29.0047  30.1337   O.co2     1 RES1   0.0000
  2584 O72     35.7998  29.0047  32.2881   O.co2     1 RES1   0.0000
  2585 O73     21.5587  27.1785  34.0538   O.co2     1 RES1   0.0000
  2586 O74     23.0283  35.2433  34.0538   O.co2     1 RES1   0.0000
  2587 O75     23.0283  27.1785  28.3680   O.co2     1 RES1   0.0000
  2588 O76     21.5587  35.2433  28.3680   O.co2     1 RES1   0.0000
  2589 O77     34.0538  21.5587  27.1785   O.co2     1 RES1   0.0000
  2590 O78     34.0538  23.0283  35.2433   O.co2     1 RES1   0.0000
  2591 O79     28.3680  23.0283  27.1785   O.co2     1 RES1   0.0000
  2592 O80     28.3680  21.5587  35.2433   O.co2     1 RES1   0.0000
  2593 O81     27.1785  34.0538  21.5587   O.co2     1 RES1   0.0000
  2594 O82     35.2433  34.0538  23.0283   O.co2     1 RES1   0.0000
  2595 O83     27.1785  28.3680  23.0283   O.co2     1 RES1   0.0000
  2596 O84     35.2433  28.3680  21.5587   O.co2     1 RES1   0.0000
  2597 O87     30.4761  26.3259  25.1364   O.co2     1 RES1   0.0000
  2598 O88     31.9457  18.2611  25.1364   O.co2     1 RES1   0.0000
  2599 O91     25.1364  30.4761  26.3259   O.co2     1 RES1   0.0000
  2600 O92     25.1364  31.9457  18.2611   O.co2     1 RES1   0.0000
  2601 O95     26.3259  25.1364  30.4761   O.co2     1 RES1   0.0000
  2602 O96     18.2611  25.1364  31.9457   O.co2     1 RES1   0.0000
  2603 C1      20.6955  30.1248  18.2628   C.2       1 RES1   0.0000
  2604 C2      23.8915  32.2970  18.2628   C.2       1 RES1   0.0000
  2605 C3      23.8915  30.1248  26.3242   C.2       1 RES1   0.0000
  2606 C4      20.6955  32.2970  26.3242   C.2       1 RES1   0.0000
  2607 C5      18.2628  20.6955  30.1248   C.2       1 RES1   0.0000
  2608 C6      18.2628  23.8915  32.2970   C.2       1 RES1   0.0000
  2609 C7      26.3242  23.8915  30.1248   C.2       1 RES1   0.0000
  2610 C8      26.3242  20.6955  32.2970   C.2       1 RES1   0.0000
  2611 C9      30.1248  18.2628  20.6955   C.2       1 RES1   0.0000
  2612 C10     32.2970  18.2628  23.8915   C.2       1 RES1   0.0000
  2613 C11     30.1248  26.3242  23.8915   C.2       1 RES1   0.0000
  2614 C12     32.2970  26.3242  20.6955   C.2       1 RES1   0.0000
  2615 C13     32.8089  23.3796  35.2416   C.2       1 RES1   0.0000
  2616 C14     29.6129  21.2074  35.2416   C.2       1 RES1   0.0000
  2617 C15     29.6129  23.3796  27.1802   C.2       1 RES1   0.0000
  2618 C16     32.8089  21.2074  27.1802   C.2       1 RES1   0.0000
  2619 C17     35.2416  32.8089  23.3796   C.2       1 RES1   0.0000
  2620 C18     35.2416  29.6129  21.2074   C.2       1 RES1   0.0000
  2621 C19     27.1802  29.6129  23.3796   C.2       1 RES1   0.0000
  2622 C20     27.1802  32.8089  21.2074   C.2       1 RES1   0.0000
  2623 C21     23.3796  35.2416  32.8089   C.2       1 RES1   0.0000
  2624 C22     21.2074  35.2416  29.6129   C.2       1 RES1   0.0000
  2625 C23     23.3796  27.1802  29.6129   C.2       1 RES1   0.0000
  2626 C24     21.2074  27.1802  32.8089   C.2       1 RES1   0.0000
  2627 C25     21.6550  31.3090  18.2682   C.2       1 RES1   0.0000
  2628 C26     22.9320  31.1128  18.2682   C.2       1 RES1   0.0000
  2629 C27     22.9320  31.3090  26.3188   C.2       1 RES1   0.0000
  2630 C28     21.6550  31.1128  26.3188   C.2       1 RES1   0.0000
  2631 C29     18.2682  21.6550  31.3090   C.2       1 RES1   0.0000
  2632 C30     18.2682  22.9320  31.1128   C.2       1 RES1   0.0000
  2633 C31     26.3188  22.9320  31.3090   C.2       1 RES1   0.0000
  2634 C32     26.3188  21.6550  31.1128   C.2       1 RES1   0.0000
  2635 C33     31.3090  18.2682  21.6550   C.2       1 RES1   0.0000
  2636 C34     31.1128  18.2682  22.9320   C.2       1 RES1   0.0000
  2637 C35     31.3090  26.3188  22.9320   C.2       1 RES1   0.0000
  2638 C36     31.1128  26.3188  21.6550   C.2       1 RES1   0.0000
  2639 C37     31.8494  22.1954  35.2362   C.2       1 RES1   0.0000
  2640 C38     30.5724  22.3916  35.2362   C.2       1 RES1   0.0000
  2641 C39     30.5724  22.1954  27.1856   C.2       1 RES1   0.0000
  2642 C40     31.8494  22.3916  27.1856   C.2       1 RES1   0.0000
  2643 C41     35.2362  31.8494  22.1954   C.2       1 RES1   0.0000
  2644 C42     35.2362  30.5724  22.3916   C.2       1 RES1   0.0000
  2645 C43     27.1856  30.5724  22.1954   C.2       1 RES1   0.0000
  2646 C44     27.1856  31.8494  22.3916   C.2       1 RES1   0.0000
  2647 C45     22.1954  35.2362  31.8494   C.2       1 RES1   0.0000
  2648 C46     22.3916  35.2362  30.5724   C.2       1 RES1   0.0000
  2649 C47     22.1954  27.1856  30.5724   C.2       1 RES1   0.0000
  2650 C48     22.3916  27.1856  31.8494   C.2       1 RES1   0.0000
  2651 H1      21.3215  32.1775  18.2700   H         1 RES1   0.0000
  2652 H2      23.2655  30.2443  18.2700   H         1 RES1   0.0000
  2653 H3      23.2655  32.1775  26.3170   H         1 RES1   0.0000
  2654 H4      21.3215  30.2443  26.3170   H         1 RES1   0.0000
  2655 H5      18.2700  21.3215  32.1775   H         1 RES1   0.0000
  2656 H6      18.2700  23.2655  30.2443   H         1 RES1   0.0000
  2657 H7      26.3170  23.2655  32.1775   H         1 RES1   0.0000
  2658 H8      26.3170  21.3215  30.2443   H         1 RES1   0.0000
  2659 H9      32.1775  18.2700  21.3215   H         1 RES1   0.0000
  2660 H10     30.2443  18.2700  23.2655   H         1 RES1   0.0000
  2661 H11     32.1775  26.3170  23.2655   H         1 RES1   0.0000
  2662 H12     30.2443  26.3170  21.3215   H         1 RES1   0.0000
  2663 H13     32.1829  21.3269  35.2344   H         1 RES1   0.0000
  2664 H14     30.2389  23.2601  35.2344   H         1 RES1   0.0000
  2665 H15     30.2389  21.3269  27.1874   H         1 RES1   0.0000
  2666 H16     32.1829  23.2601  27.1874   H         1 RES1   0.0000
  2667 H17     35.2344  32.1829  21.3269   H         1 RES1   0.0000
  2668 H18     35.2344  30.2389  23.2601   H         1 RES1   0.0000
  2669 H19     27.1874  30.2389  21.3269   H         1 RES1   0.0000
  2670 H20     27.1874  32.1829  23.2601   H         1 RES1   0.0000
  2671 H21     21.3269  35.2344  32.1829   H         1 RES1   0.0000
  2672 H22     23.2601  35.2344  30.2389   H         1 RES1   0.0000
  2673 H23     21.3269  27.1874  30.2389   H         1 RES1   0.0000
  2674 H24     23.2601  27.1874  32.1829   H         1 RES1   0.0000
  2675 C49     21.2341  23.8951  17.8348   C.2       1 RES1   0.0000
  2676 C50     23.3529  20.6919  17.8348   C.2       1 RES1   0.0000
  2677 C51     23.3529  23.8951  26.7522   C.2       1 RES1   0.0000
  2678 C52     21.2341  20.6919  26.7522   C.2       1 RES1   0.0000
  2679 C53     17.8348  21.2341  23.8951   C.2       1 RES1   0.0000
  2680 C54     17.8348  23.3529  20.6919   C.2       1 RES1   0.0000
  2681 C55     26.7522  23.3529  23.8951   C.2       1 RES1   0.0000
  2682 C56     26.7522  21.2341  20.6919   C.2       1 RES1   0.0000
  2683 C57     23.8951  17.8348  21.2341   C.2       1 RES1   0.0000
  2684 C58     20.6919  17.8348  23.3529   C.2       1 RES1   0.0000
  2685 C59     23.8951  26.7522  23.3529   C.2       1 RES1   0.0000
  2686 C60     20.6919  26.7522  21.2341   C.2       1 RES1   0.0000
  2687 C61     32.2703  29.6093  35.6696   C.2       1 RES1   0.0000
  2688 C62     30.1515  32.8125  35.6696   C.2       1 RES1   0.0000
  2689 C63     30.1515  29.6093  26.7522   C.2       1 RES1   0.0000
  2690 C64     32.2703  32.8125  26.7522   C.2       1 RES1   0.0000
  2691 C65     35.6696  32.2703  29.6093   C.2       1 RES1   0.0000
  2692 C66     35.6696  30.1515  32.8125   C.2       1 RES1   0.0000
  2693 C67     26.7522  30.1515  29.6093   C.2       1 RES1   0.0000
  2694 C68     26.7522  32.2703  32.8125   C.2       1 RES1   0.0000
  2695 C69     29.6093  35.6696  32.2703   C.2       1 RES1   0.0000
  2696 C70     32.8125  35.6696  30.1515   C.2       1 RES1   0.0000
  2697 C71     29.6093  26.7522  30.1515   C.2       1 RES1   0.0000
  2698 C72     32.8125  26.7522  32.2703   C.2       1 RES1   0.0000
  2699 C73     22.4130  22.9445  17.8366   C.2       1 RES1   0.0000
  2700 C74     22.1740  21.6425  17.8366   C.2       1 RES1   0.0000
  2701 C75     22.1740  22.9445  26.7504   C.2       1 RES1   0.0000
  2702 C76     22.4130  21.6425  26.7504   C.2       1 RES1   0.0000
  2703 C77     17.8366  22.4130  22.9445   C.2       1 RES1   0.0000
  2704 C78     17.8366  22.1740  21.6425   C.2       1 RES1   0.0000
  2705 C79     26.7504  22.1740  22.9445   C.2       1 RES1   0.0000
  2706 C80     26.7504  22.4130  21.6425   C.2       1 RES1   0.0000
  2707 C81     22.9445  17.8366  22.4130   C.2       1 RES1   0.0000
  2708 C82     21.6425  17.8366  22.1740   C.2       1 RES1   0.0000
  2709 C83     22.9445  26.7504  22.1740   C.2       1 RES1   0.0000
  2710 C84     21.6425  26.7504  22.4130   C.2       1 RES1   0.0000
  2711 C85     31.0914  30.5599  35.6678   C.2       1 RES1   0.0000
  2712 C86     31.3304  31.8619  35.6678   C.2       1 RES1   0.0000
  2713 C87     31.3304  30.5599  26.7540   C.2       1 RES1   0.0000
  2714 C88     31.0914  31.8619  26.7540   C.2       1 RES1   0.0000
  2715 C89     35.6678  31.0914  30.5599   C.2       1 RES1   0.0000
  2716 C90     35.6678  31.3304  31.8619   C.2       1 RES1   0.0000
  2717 C91     26.7540  31.3304  30.5599   C.2       1 RES1   0.0000
  2718 C92     26.7540  31.0914  31.8619   C.2       1 RES1   0.0000
  2719 C93     30.5599  35.6678  31.0914   C.2       1 RES1   0.0000
  2720 C94     31.8619  35.6678  31.3304   C.2       1 RES1   0.0000
  2721 C95     30.5599  26.7540  31.3304   C.2       1 RES1   0.0000
  2722 C96     31.8619  26.7540  31.0914   C.2       1 RES1   0.0000
  2723 H25     23.2851  23.2673  17.8366   H         1 RES1   0.0000
  2724 H26     21.3019  21.3197  17.8366   H         1 RES1   0.0000
  2725 H27     21.3019  23.2673  26.7504   H         1 RES1   0.0000
  2726 H28     23.2851  21.3197  26.7504   H         1 RES1   0.0000
  2727 H29     17.8366  23.2851  23.2673   H         1 RES1   0.0000
  2728 H30     17.8366  21.3019  21.3197   H         1 RES1   0.0000
  2729 H31     26.7504  21.3019  23.2673   H         1 RES1   0.0000
  2730 H32     26.7504  23.2851  21.3197   H         1 RES1   0.0000
  2731 H33     23.2673  17.8366  23.2851   H         1 RES1   0.0000
  2732 H34     21.3197  17.8366  21.3019   H         1 RES1   0.0000
  2733 H35     23.2673  26.7504  21.3019   H         1 RES1   0.0000
  2734 H36     21.3197  26.7504  23.2851   H         1 RES1   0.0000
  2735 H37     30.2193  30.2371  35.6678   H         1 RES1   0.0000
  2736 H38     32.2025  32.1847  35.6678   H         1 RES1   0.0000
  2737 H39     32.2025  30.2371  26.7540   H         1 RES1   0.0000
  2738 H40     30.2193  32.1847  26.7540   H         1 RES1   0.0000
  2739 H41     35.6678  30.2193  30.2371   H         1 RES1   0.0000
  2740 H42     35.6678  32.2025  32.1847   H         1 RES1   0.0000
  2741 H43     26.7540  32.2025  30.2371   H         1 RES1   0.0000
  2742 H44     26.7540  30.2193  32.1847   H         1 RES1   0.0000
  2743 H45     30.2371  35.6678  30.2193   H         1 RES1   0.0000
  2744 H46     32.1847  35.6678  32.2025   H         1 RES1   0.0000
  2745 H47     30.2371  26.7540  32.2025   H         1 RES1   0.0000
  2746 H48     32.1847  26.7540  30.2193   H         1 RES1   0.0000
  2747 O97     19.1992  28.3877  34.5157   O.3       1 RES1   0.0000
  2748 O98     25.3878  34.0341  34.5157   O.3       1 RES1   0.0000
  2749 O99     25.3878  28.3877  27.9061   O.3       1 RES1   0.0000
  2750 O101    34.5157  19.1992  28.3877   O.3       1 RES1   0.0000
  2751 O102    34.5157  25.3878  34.0341   O.3       1 RES1   0.0000
  2752 O103    27.9061  25.3878  28.3877   O.3       1 RES1   0.0000
  2753 O105    28.3877  34.5157  19.1992   O.3       1 RES1   0.0000
  2754 O106    34.0341  34.5157  25.3878   O.3       1 RES1   0.0000
  2755 O107    28.3877  27.9061  25.3878   O.3       1 RES1   0.0000
  2756 O111    28.1166  25.1167  25.5983   O.3       1 RES1   0.0000
  2757 O112    34.3052  19.4703  25.5983   O.3       1 RES1   0.0000
  2758 O115    25.5983  28.1166  25.1167   O.3       1 RES1   0.0000
  2759 O116    25.5983  34.3052  19.4703   O.3       1 RES1   0.0000
  2760 O119    25.1167  25.5983  28.1166   O.3       1 RES1   0.0000
  2761 O155    25.3522  25.3522  25.3522   O.3       1 RES1   0.0000
  2762 O157    34.2696  28.1522  34.2696   O.3       1 RES1   0.0000
  2763 O158    28.1522  34.2696  34.2696   O.3       1 RES1   0.0000
  2764 O159    28.1522  28.1522  28.1522   O.3       1 RES1   0.0000
  2765 O160    34.2696  34.2696  28.1522   O.3       1 RES1   0.0000
  2766 Zr1     20.2933  26.9507  35.8815   Zr        1 RES1   0.0000
  2767 Zr1     38.1281  26.9507  18.0467   Zr        1 RES1   0.0000
  2768 Zr2     24.2937  35.4711  35.8815   Zr        1 RES1   0.0000
  2769 Zr4     38.1281  35.4711  26.5403   Zr        1 RES1   0.0000
  2770 Zr5     18.0467  38.1281  26.9507   Zr        1 RES1   0.0000
  2771 Zr5     35.8815  20.2933  26.9507   Zr        1 RES1   0.0000
  2772 Zr6     35.8815  24.2937  35.4711   Zr        1 RES1   0.0000
  2773 Zr8     26.5403  38.1281  35.4711   Zr        1 RES1   0.0000
  2774 Zr9     26.9507  18.0467  38.1281   Zr        1 RES1   0.0000
  2775 Zr9     26.9507  35.8815  20.2933   Zr        1 RES1   0.0000
  2776 Zr10    35.4711  35.8815  24.2937   Zr        1 RES1   0.0000
  2777 Zr12    35.4711  26.5403  38.1281   Zr        1 RES1   0.0000
  2778 Zr14    29.2107  35.8681  35.4577   Zr        1 RES1   0.0000
  2779 Zr16    33.2111  35.8681  26.9641   Zr        1 RES1   0.0000
  2780 Zr18    35.4577  29.2107  35.8681   Zr        1 RES1   0.0000
  2781 Zr20    26.9641  33.2111  35.8681   Zr        1 RES1   0.0000
  2782 Zr22    35.8681  35.4577  29.2107   Zr        1 RES1   0.0000
  2783 Zr24    35.8681  26.9641  33.2111   Zr        1 RES1   0.0000
  2784 O2      23.0247  37.3015  17.9775   O.2       1 RES1   0.0000
  2785 O4      21.5623  37.3015  26.6095   O.2       1 RES1   0.0000
  2786 O6      17.9775  23.0247  37.3015   O.2       1 RES1   0.0000
  2787 O8      26.6095  21.5623  37.3015   O.2       1 RES1   0.0000
  2788 O10     37.3015  17.9775  23.0247   O.2       1 RES1   0.0000
  2789 O12     37.3015  26.6095  21.5623   O.2       1 RES1   0.0000
  2790 O50     23.3707  35.5394  20.0873   O.2       1 RES1   0.0000
  2791 O52     21.2163  35.5394  24.4997   O.2       1 RES1   0.0000
  2792 O54     20.0873  23.3707  35.5394   O.2       1 RES1   0.0000
  2793 O56     24.4997  21.2163  35.5394   O.2       1 RES1   0.0000
  2794 O58     35.5394  20.0873  23.3707   O.2       1 RES1   0.0000
  2795 O60     35.5394  24.4997  21.2163   O.2       1 RES1   0.0000
  2796 O85     31.9457  26.3259  37.2854   O.2       1 RES1   0.0000
  2797 O86     30.4761  18.2611  37.2854   O.2       1 RES1   0.0000
  2798 O89     37.2854  31.9457  26.3259   O.2       1 RES1   0.0000
  2799 O90     37.2854  30.4761  18.2611   O.2       1 RES1   0.0000
  2800 O93     26.3259  37.2854  31.9457   O.2       1 RES1   0.0000
  2801 O94     18.2611  37.2854  30.4761   O.2       1 RES1   0.0000
  2802 O97     37.0340  28.3877  16.6809   O.2       1 RES1   0.0000
  2803 O100    37.0340  34.0341  27.9061   O.2       1 RES1   0.0000
  2804 O101    16.6809  37.0340  28.3877   O.2       1 RES1   0.0000
  2805 O104    27.9061  37.0340  34.0341   O.2       1 RES1   0.0000
  2806 O105    28.3877  16.6809  37.0340   O.2       1 RES1   0.0000
  2807 O108    34.0341  27.9061  37.0340   O.2       1 RES1   0.0000
  2808 O109    34.3052  25.1167  36.8235   O.2       1 RES1   0.0000
  2809 O110    28.1166  19.4703  36.8235   O.2       1 RES1   0.0000
  2810 O113    36.8235  34.3052  25.1167   O.2       1 RES1   0.0000
  2811 O114    36.8235  28.1166  19.4703   O.2       1 RES1   0.0000
  2812 O117    25.1167  36.8235  34.3052   O.2       1 RES1   0.0000
  2813 O118    19.4703  36.8235  28.1166   O.2       1 RES1   0.0000
  2814 O120    19.4703  25.5983  16.4704   O.2       1 RES1   0.0000
  2815 O153    19.2348  25.3522  37.0696   O.2       1 RES1   0.0000
  2816 O153    37.0696  25.3522  19.2348   O.2       1 RES1   0.0000
  2817 O154    25.3522  19.2348  37.0696   O.2       1 RES1   0.0000
  2818 O154    25.3522  37.0696  19.2348   O.2       1 RES1   0.0000
  2819 O156    19.2348  37.0696  25.3522   O.2       1 RES1   0.0000
  2820 O156    37.0696  19.2348  25.3522   O.2       1 RES1   0.0000
@<TRIPOS>BOND
     1     1    25   un
     2     1    49   un
     3     1    73   un
     4     1   282    1
     5     1   288    1
     6     1   306   un
     7     1   317   un
     8     1   330   un
     9     1   341   un
    10     1   368   un
    11     1   380   un
    12     1   403   un
    13     2    20   un
    14     2    50   un
    15     2   284    1
    16     2   310   un
    17     2   313   un
    18     2   337   un
    19     2   344   un
    20     2   356   un
    21     2   369   un
    22     2   382   un
    23     2   400   un
    24     2   407   un
    25     3     7   un
    26     3    11   un
    27     3    19   un
    28     3    23   un
    29     3    27   un
    30     3    51   un
    31     3    75   un
    32     3    99   un
    33     3   267    1
    34     3   283    1
    35     3   287    1
    36     3   290    1
    37     4    22   un
    38     4    52   un
    39     4   100   un
    40     4   268    1
    41     4   281    1
    42     4   304   un
    43     4   315   un
    44     4   328   un
    45     4   345   un
    46     4   357   un
    47     4   402   un
    48     4   408   un
    49     5    29   un
    50     5    53   un
    51     5    77   un
    52     5   286    1
    53     5   291    1
    54     5   301   un
    55     5   314   un
    56     5   325   un
    57     5   338   un
    58     5   370   un
    59     5   384   un
    60     5   395   un
    61     6    24   un
    62     6    54   un
    63     6   296   un
    64     6   318   un
    65     6   320   un
    66     6   346   un
    67     6   358   un
    68     6   371   un
    69     6   386   un
    70     6   392   un
    71     6   404   un
    72     7    11   un
    73     7    15   un
    74     7    23   un
    75     7    31   un
    76     7    55   un
    77     7    79   un
    78     7   103   un
    79     7   271    1
    80     7   279    1
    81     7   287    1
    82     7   290    1
    83     8    14   un
    84     8    56   un
    85     8   104   un
    86     8   272    1
    87     8   285    1
    88     8   299   un
    89     8   312   un
    90     8   336   un
    91     8   347   un
    92     8   359   un
    93     8   394   un
    94     8   406   un
    95     9    33   un
    96     9    57   un
    97     9    81   un
    98     9   278    1
    99     9   289    1
   100     9   298   un
   101     9   309   un
   102     9   322   un
   103     9   333   un
   104     9   372   un
   105     9   388   un
   106     9   399   un
   107    10    16   un
   108    10    58   un
   109    10   280    1
   110    10   302   un
   111    10   305   un
   112    10   329   un
   113    10   348   un
   114    10   360   un
   115    10   373   un
   116    10   390   un
   117    10   396   un
   118    10   409   un
   119    11    15   un
   120    11    19   un
   121    11    35   un
   122    11    59   un
   123    11    83   un
   124    11   107   un
   125    11   275    1
   126    11   279    1
   127    11   283    1
   128    11   290    1
   129    12    18   un
   130    12    60   un
   131    12   108   un
   132    12   276    1
   133    12   277    1
   134    12   297   un
   135    12   307   un
   136    12   321   un
   137    12   349   un
   138    12   361   un
   139    12   398   un
   140    12   405   un
   141    13    37   un
   142    13    61   un
   143    13    85   un
   144    13   270    1
   145    13   292    1
   146    13   308   un
   147    13   319   un
   148    13   332   un
   149    13   343   un
   150    13   374   un
   151    13   391   un
   152    13   393   un
   153    14    62   un
   154    14   272    1
   155    14   312   un
   156    14   334   un
   157    14   336   un
   158    14   350   un
   159    14   362   un
   160    14   375   un
   161    14   389   un
   162    14   394   un
   163    14   412   un
   164    15    19   un
   165    15    23   un
   166    15    39   un
   167    15    63   un
   168    15    87   un
   169    15   111   un
   170    15   271    1
   171    15   275    1
   172    15   279    1
   173    15   294    1
   174    16    64   un
   175    16   112   un
   176    16   269    1
   177    16   280    1
   178    16   305   un
   179    16   329   un
   180    16   339   un
   181    16   351   un
   182    16   363   un
   183    16   390   un
   184    16   415   un
   185    17    41   un
   186    17    65   un
   187    17    89   un
   188    17   274    1
   189    17   295    1
   190    17   303   un
   191    17   316   un
   192    17   327   un
   193    17   340   un
   194    17   376   un
   195    17   383   un
   196    17   397   un
   197    18    66   un
   198    18   276    1
   199    18   297   un
   200    18   321   un
   201    18   342   un
   202    18   352   un
   203    18   364   un
   204    18   377   un
   205    18   381   un
   206    18   398   un
   207    18   411   un
   208    19    23   un
   209    19    43   un
   210    19    67   un
   211    19    91   un
   212    19   115   un
   213    19   267    1
   214    19   275    1
   215    19   283    1
   216    19   294    1
   217    20    68   un
   218    20   116   un
   219    20   273    1
   220    20   284    1
   221    20   313   un
   222    20   323   un
   223    20   337   un
   224    20   353   un
   225    20   365   un
   226    20   382   un
   227    20   413   un
   228    21    45   un
   229    21    69   un
   230    21    93   un
   231    21   266    1
   232    21   293    1
   233    21   300   un
   234    21   311   un
   235    21   324   un
   236    21   335   un
   237    21   378   un
   238    21   387   un
   239    21   401   un
   240    22    70   un
   241    22   268    1
   242    22   304   un
   243    22   326   un
   244    22   328   un
   245    22   354   un
   246    22   366   un
   247    22   379   un
   248    22   385   un
   249    22   402   un
   250    22   414   un
   251    23    47   un
   252    23    71   un
   253    23    95   un
   254    23   119   un
   255    23   267    1
   256    23   271    1
   257    23   287    1
   258    23   294    1
   259    24    72   un
   260    24   120   un
   261    24   265    1
   262    24   296   un
   263    24   320   un
   264    24   331   un
   265    24   355   un
   266    24   367   un
   267    24   386   un
   268    24   410   un
   269    25   193   un
   270    26   194   un
   271    26   298   un
   272    27   195   un
   273    28   196   un
   274    28   301   un
   275    29   197   un
   276    30   198   un
   277    30   306   un
   278    31   199   un
   279    32   200   un
   280    32   309   un
   281    33   201   un
   282    34   202   un
   283    34   314   un
   284    35   203   un
   285    36   204   un
   286    36   317   un
   287    37   205   un
   288    38   206   un
   289    38   324   un
   290    39   207   un
   291    40   208   un
   292    40   327   un
   293    41   209   un
   294    42   210   un
   295    42   332   un
   296    43   211   un
   297    44   212   un
   298    44   335   un
   299    45   213   un
   300    46   214   un
   301    46   340   un
   302    47   215   un
   303    48   216   un
   304    48   343   un
   305    49   121   un
   306    50   122   un
   307    51   123   un
   308    52   124   un
   309    53   125   un
   310    54   126   un
   311    55   127   un
   312    56   128   un
   313    57   129   un
   314    58   130   un
   315    59   131   un
   316    60   132   un
   317    61   133   un
   318    62   134   un
   319    63   135   un
   320    64   136   un
   321    65   137   un
   322    66   138   un
   323    67   139   un
   324    68   140   un
   325    69   141   un
   326    70   142   un
   327    71   143   un
   328    72   144   un
   329    73   204   un
   330    74   201   un
   331    74   298   un
   332    75   203   un
   333    76   202   un
   334    76   301   un
   335    77   196   un
   336    78   193   un
   337    78   306   un
   338    79   195   un
   339    80   194   un
   340    80   309   un
   341    81   200   un
   342    82   197   un
   343    82   314   un
   344    83   199   un
   345    84   198   un
   346    84   317   un
   347    85   216   un
   348    86   213   un
   349    86   324   un
   350    87   215   un
   351    88   214   un
   352    88   327   un
   353    89   208   un
   354    90   205   un
   355    90   332   un
   356    91   207   un
   357    92   206   un
   358    92   335   un
   359    93   212   un
   360    94   209   un
   361    94   340   un
   362    95   211   un
   363    96   210   un
   364    96   343   un
   365    97   144   un
   366    97   296   un
   367    98   141   un
   368    98   300   un
   369    99   143   un
   370   100   142   un
   371   101   136   un
   372   101   305   un
   373   102   133   un
   374   102   308   un
   375   103   135   un
   376   104   134   un
   377   105   140   un
   378   105   313   un
   379   106   137   un
   380   106   316   un
   381   107   139   un
   382   108   138   un
   383   109   132   un
   384   109   321   un
   385   110   129   un
   386   110   322   un
   387   111   131   un
   388   112   130   un
   389   113   124   un
   390   113   328   un
   391   114   121   un
   392   114   330   un
   393   115   123   un
   394   116   122   un
   395   117   128   un
   396   117   336   un
   397   118   125   un
   398   118   338   un
   399   119   127   un
   400   120   126   un
   401   121   145   un
   402   122   146   un
   403   123   147   un
   404   124   148   un
   405   125   149   un
   406   126   150   un
   407   127   151   un
   408   128   152   un
   409   129   153   un
   410   130   154   un
   411   131   155   un
   412   132   156   un
   413   133   157   un
   414   134   158   un
   415   135   159   un
   416   136   160   un
   417   137   161   un
   418   138   162   un
   419   139   163   un
   420   140   164   un
   421   141   165   un
   422   142   166   un
   423   143   167   un
   424   144   168   un
   425   145   146   un
   426   145   169    1
   427   146   170    1
   428   147   148   un
   429   147   171    1
   430   148   172    1
   431   149   150   un
   432   149   173    1
   433   150   174    1
   434   151   152   un
   435   151   175    1
   436   152   176    1
   437   153   154   un
   438   153   177    1
   439   154   178    1
   440   155   156   un
   441   155   179    1
   442   156   180    1
   443   157   158   un
   444   157   181    1
   445   158   182    1
   446   159   160   un
   447   159   183    1
   448   160   184    1
   449   161   162   un
   450   161   185    1
   451   162   186    1
   452   163   164   un
   453   163   187    1
   454   164   188    1
   455   165   166   un
   456   165   189    1
   457   166   190    1
   458   167   168   un
   459   167   191    1
   460   168   192    1
   461   193   217   un
   462   194   218   un
   463   195   219   un
   464   196   220   un
   465   197   221   un
   466   198   222   un
   467   199   223   un
   468   200   224   un
   469   201   225   un
   470   202   226   un
   471   203   227   un
   472   204   228   un
   473   205   229   un
   474   206   230   un
   475   207   231   un
   476   208   232   un
   477   209   233   un
   478   210   234   un
   479   211   235   un
   480   212   236   un
   481   213   237   un
   482   214   238   un
   483   215   239   un
   484   216   240   un
   485   217   218   un
   486   217   241    1
   487   218   242    1
   488   219   220   un
   489   219   243    1
   490   220   244    1
   491   221   222   un
   492   221   245    1
   493   222   246    1
   494   223   224   un
   495   223   247    1
   496   224   248    1
   497   225   226   un
   498   225   249    1
   499   226   250    1
   500   227   228   un
   501   227   251    1
   502   228   252    1
   503   229   230   un
   504   229   253    1
   505   230   254    1
   506   231   232   un
   507   231   255    1
   508   232   256    1
   509   233   234   un
   510   233   257    1
   511   234   258    1
   512   235   236   un
   513   235   259    1
   514   236   260    1
   515   237   238   un
   516   237   261    1
   517   238   262    1
   518   239   240   un
   519   239   263    1
   520   240   264    1
   521   265   296    1
   522   265   331    1
   523   266   300    1
   524   266   335    1
   525   268   328    1
   526   269   305    1
   527   269   339    1
   528   270   308    1
   529   270   343    1
   530   272   336    1
   531   273   313    1
   532   273   323    1
   533   274   316    1
   534   274   327    1
   535   276   321    1
   536   277   307    1
   537   277   321    1
   538   278   309    1
   539   278   322    1
   540   280   305    1
   541   281   315    1
   542   281   328    1
   543   282   317    1
   544   282   330    1
   545   284   313    1
   546   285   299   un
   547   285   336    1
   548   286   301    1
   549   286   338    1
   550   288   306    1
   551   288   317    1
   552   289   298    1
   553   289   309    1
   554   291   301    1
   555   291   314    1
   556   292   332    1
   557   292   343    1
   558   293   324    1
   559   293   335    1
   560   295   327    1
   561   295   340    1
   562   296   318   un
   563   296   331   un
   564   296   404   un
   565   297   307   un
   566   297   342   un
   567   297   381   un
   568   297   398   un
   569   297   405   un
   570   298   309   un
   571   298   333   un
   572   298   399   un
   573   299   312   un
   574   299   334    1
   575   299   336   un
   576   299   406   un
   577   300   311   un
   578   300   335   un
   579   300   401   un
   580   301   314   un
   581   301   338   un
   582   302   305   un
   583   302   329   un
   584   302   339   un
   585   302   396   un
   586   302   409   un
   587   303   316   un
   588   303   340   un
   589   303   383   un
   590   303   397   un
   591   304   315   un
   592   304   326   un
   593   304   385   un
   594   304   402   un
   595   304   408   un
   596   305   339   un
   597   305   409   un
   598   306   317   un
   599   306   341   un
   600   306   403   un
   601   307   321   un
   602   307   342   un
   603   307   405   un
   604   308   319   un
   605   308   343   un
   606   308   393   un
   607   309   322   un
   608   310   313   un
   609   310   323   un
   610   310   337   un
   611   310   400   un
   612   310   407   un
   613   311   324   un
   614   311   387   un
   615   311   401   un
   616   312   334   un
   617   312   389   un
   618   312   394   un
   619   312   406   un
   620   313   323   un
   621   313   407   un
   622   314   325   un
   623   314   395   un
   624   315   326   un
   625   315   328   un
   626   315   408   un
   627   316   327   un
   628   316   397   un
   629   317   330   un
   630   318   320   un
   631   318   331   un
   632   318   392   un
   633   318   404   un
   634   319   332   un
   635   319   391   un
   636   319   393   un
   637   320   331   un
   638   320   386   un
   639   320   392   un
   640   320   410   un
   641   321   342   un
   642   321   411   un
   643   322   333   un
   644   322   388   un
   645   323   337   un
   646   323   413   un
   647   324   335   un
   648   324   387   un
   649   325   338   un
   650   325   384   un
   651   325   395   un
   652   326   328   un
   653   326   385   un
   654   326   414   un
   655   327   340   un
   656   328   414   un
   657   329   339   un
   658   329   390   un
   659   329   396   un
   660   329   415   un
   661   330   341   un
   662   330   380   un
   663   331   410   un
   664   332   343   un
   665   332   391   un
   666   333   388   un
   667   333   399   un
   668   334   336   un
   669   334   389   un
   670   334   412   un
   671   336   412   un
   672   337   382   un
   673   337   400   un
   674   337   413   un
   675   338   384   un
   676   339   415   un
   677   340   383   un
   678   341   380   un
   679   341   403   un
   680   342   381   un
   681   342   411   un
   682   296   434   un
   683   296   456   un
   684   296   480   un
   685   296   682    1
   686   296   777   un
   687   300   457   un
   688   300   684    1
   689   300   706   un
   690   300   728   un
   691   300   738   un
   692   300   781   un
   693   416   420   un
   694   416   423   un
   695   416   429   un
   696   416   432   un
   697   416   436   un
   698   416   458   un
   699   416   482   un
   700   416   504   un
   701   416   670    1
   702   416   683    1
   703   416   687    1
   704   416   688    1
   705   417   431   un
   706   417   459   un
   707   417   505   un
   708   417   671    1
   709   417   681    1
   710   417   701   un
   711   417   708   un
   712   417   717   un
   713   417   729   un
   714   417   739   un
   715   417   776   un
   716   417   782   un
   717   418   438   un
   718   418   460   un
   719   418   484   un
   720   418   686    1
   721   418   689    1
   722   418   698   un
   723   418   707   un
   724   418   714   un
   725   418   724   un
   726   418   748   un
   727   418   760   un
   728   418   770   un
   729   419   433   un
   730   419   461   un
   731   419   694   un
   732   419   710   un
   733   419   712   un
   734   419   730   un
   735   419   740   un
   736   419   749   un
   737   419   762   un
   738   419   767   un
   739   419   778   un
   740   420   423   un
   741   420   426   un
   742   420   432   un
   743   420   439   un
   744   420   462   un
   745   420   485   un
   746   420   508   un
   747   420   674    1
   748   420   679    1
   749   420   687    1
   750   420   688    1
   751   421   425   un
   752   421   463   un
   753   421   509   un
   754   421   675    1
   755   421   685    1
   756   421   696   un
   757   421   705   un
   758   421   723   un
   759   421   731   un
   760   421   741   un
   761   421   769   un
   762   421   780   un
   763   312   440   un
   764   312   464   un
   765   312   486   un
   766   312   750   un
   767   312   774   un
   768   422   427   un
   769   422   465   un
   770   422   680    1
   771   422   699   un
   772   422   702   un
   773   422   718   un
   774   422   732   un
   775   422   742   un
   776   422   751   un
   777   422   765   un
   778   422   771   un
   779   422   783   un
   780   423   426   un
   781   423   429   un
   782   423   442   un
   783   423   466   un
   784   423   488   un
   785   423   512   un
   786   423   678    1
   787   423   679    1
   788   423   683    1
   789   423   688    1
   790   319   467   un
   791   319   513   un
   792   319   695   un
   793   319   733   un
   794   319   743   un
   795   319   773   un
   796   319   779   un
   797   424   444   un
   798   424   468   un
   799   424   490   un
   800   424   673    1
   801   424   690    1
   802   424   703   un
   803   424   711   un
   804   424   720   un
   805   424   727   un
   806   424   752   un
   807   424   766   un
   808   424   768   un
   809   425   469   un
   810   425   675    1
   811   425   705   un
   812   425   721   un
   813   425   723   un
   814   425   734   un
   815   425   744   un
   816   425   753   un
   817   425   764   un
   818   425   769   un
   819   425   785   un
   820   426   429   un
   821   426   432   un
   822   426   446   un
   823   426   470   un
   824   426   492   un
   825   426   514   un
   826   426   674    1
   827   426   678    1
   828   426   679    1
   829   426   692    1
   830   427   471   un
   831   427   515   un
   832   427   672    1
   833   427   680    1
   834   427   702   un
   835   427   718   un
   836   427   725   un
   837   427   735   un
   838   427   745   un
   839   427   765   un
   840   427   787   un
   841   428   448   un
   842   428   472   un
   843   428   494   un
   844   428   677    1
   845   428   693    1
   846   428   700   un
   847   428   709   un
   848   428   716   un
   849   428   726   un
   850   428   754   un
   851   428   759   un
   852   428   772   un
   853   332   473   un
   854   332   695   un
   855   332   755   un
   856   332   758   un
   857   332   773   un
   858   429   432   un
   859   429   450   un
   860   429   474   un
   861   429   496   un
   862   429   518   un
   863   429   670    1
   864   429   678    1
   865   429   683    1
   866   429   692    1
   867   335   475   un
   868   335   519   un
   869   335   676    1
   870   335   684    1
   871   335   706   un
   872   430   452   un
   873   430   476   un
   874   430   498   un
   875   430   669    1
   876   430   691    1
   877   430   697   un
   878   430   704   un
   879   430   713   un
   880   430   722   un
   881   430   756   un
   882   430   763   un
   883   430   775   un
   884   431   477   un
   885   431   671    1
   886   431   701   un
   887   431   715   un
   888   431   717   un
   889   431   736   un
   890   431   746   un
   891   431   757   un
   892   431   761   un
   893   431   776   un
   894   431   786   un
   895   432   454   un
   896   432   478   un
   897   432   500   un
   898   432   522   un
   899   432   670    1
   900   432   674    1
   901   432   687    1
   902   432   692    1
   903   433   479   un
   904   433   523   un
   905   433   668    1
   906   433   694   un
   907   433   712   un
   908   433   719   un
   909   433   737   un
   910   433   747   un
   911   433   762   un
   912   433   784   un
   913   434   596   un
   914   435   597   un
   915   435   299   un
   916   436   598   un
   917   437   599   un
   918   437   698   un
   919   438   600   un
   920   346   601   un
   921   439   602   un
   922   347   603   un
   923   440   604   un
   924   441   605   un
   925   441   707   un
   926   442   606   un
   927   443   607   un
   928   443   318   un
   929   444   608   un
   930   445   609   un
   931   445   713   un
   932   446   610   un
   933   447   611   un
   934   447   716   un
   935   448   612   un
   936   449   613   un
   937   449   720   un
   938   450   614   un
   939   451   615   un
   940   451   722   un
   941   452   616   un
   942   453   617   un
   943   453   726   un
   944   454   618   un
   945   455   619   un
   946   455   727   un
   947   456   524   un
   948   457   525   un
   949   458   526   un
   950   459   527   un
   951   460   528   un
   952   461   529   un
   953   462   530   un
   954   463   531   un
   955   464   532   un
   956   465   533   un
   957   466   534   un
   958   467   535   un
   959   468   536   un
   960   469   537   un
   961   470   538   un
   962   471   539   un
   963   472   540   un
   964   473   541   un
   965   474   542   un
   966   475   543   un
   967   476   544   un
   968   477   545   un
   969   478   546   un
   970   479   547   un
   971   480   607   un
   972   481   604   un
   973   481   299   un
   974   482   606   un
   975   483   605   un
   976   483   698   un
   977   484   599   un
   978   358   596   un
   979   485   598   un
   980   359   597   un
   981   486   603   un
   982   487   600   un
   983   487   707   un
   984   488   602   un
   985   489   601   un
   986   489   318   un
   987   490   619   un
   988   491   616   un
   989   491   713   un
   990   492   618   un
   991   493   617   un
   992   493   716   un
   993   494   611   un
   994   495   608   un
   995   495   720   un
   996   496   610   un
   997   497   609   un
   998   497   722   un
   999   498   615   un
  1000   499   612   un
  1001   499   726   un
  1002   500   614   un
  1003   501   613   un
  1004   501   727   un
  1005   502   547   un
  1006   502   694   un
  1007   503   544   un
  1008   503   697   un
  1009   504   546   un
  1010   505   545   un
  1011   506   539   un
  1012   506   702   un
  1013   507   536   un
  1014   507   703   un
  1015   508   538   un
  1016   509   537   un
  1017   510   543   un
  1018   510   706   un
  1019   511   540   un
  1020   511   709   un
  1021   512   542   un
  1022   513   541   un
  1023   374   535   un
  1024   375   532   un
  1025   514   534   un
  1026   515   533   un
  1027   516   527   un
  1028   516   717   un
  1029   517   524   un
  1030   517   331   un
  1031   518   526   un
  1032   519   525   un
  1033   520   531   un
  1034   520   723   un
  1035   521   528   un
  1036   521   724   un
  1037   522   530   un
  1038   523   529   un
  1039   524   548   un
  1040   525   549   un
  1041   526   550   un
  1042   527   551   un
  1043   528   552   un
  1044   529   553   un
  1045   530   554   un
  1046   531   555   un
  1047   532   556   un
  1048   533   557   un
  1049   534   558   un
  1050   535   559   un
  1051   536   560   un
  1052   537   561   un
  1053   538   562   un
  1054   539   563   un
  1055   540   564   un
  1056   541   565   un
  1057   542   566   un
  1058   543   567   un
  1059   544   568   un
  1060   545   569   un
  1061   546   570   un
  1062   547   571   un
  1063   548   549   un
  1064   548   572    1
  1065   549   573    1
  1066   550   551   un
  1067   550   574    1
  1068   551   575    1
  1069   552   553   un
  1070   552   576    1
  1071   553   577    1
  1072   554   555   un
  1073   554   578    1
  1074   555   579    1
  1075   556   557   un
  1076   556   580    1
  1077   557   581    1
  1078   558   559   un
  1079   558   582    1
  1080   559   583    1
  1081   560   561   un
  1082   560   584    1
  1083   561   585    1
  1084   562   563   un
  1085   562   586    1
  1086   563   587    1
  1087   564   565   un
  1088   564   588    1
  1089   565   589    1
  1090   566   567   un
  1091   566   590    1
  1092   567   591    1
  1093   568   569   un
  1094   568   592    1
  1095   569   593    1
  1096   570   571   un
  1097   570   594    1
  1098   571   595    1
  1099   596   620   un
  1100   597   621   un
  1101   598   622   un
  1102   599   623   un
  1103   600   624   un
  1104   601   625   un
  1105   602   626   un
  1106   603   627   un
  1107   604   628   un
  1108   605   629   un
  1109   606   630   un
  1110   607   631   un
  1111   608   632   un
  1112   609   633   un
  1113   610   634   un
  1114   611   635   un
  1115   612   636   un
  1116   613   637   un
  1117   614   638   un
  1118   615   639   un
  1119   616   640   un
  1120   617   641   un
  1121   618   642   un
  1122   619   643   un
  1123   620   621   un
  1124   620   644    1
  1125   621   645    1
  1126   622   623   un
  1127   622   646    1
  1128   623   647    1
  1129   624   625   un
  1130   624   648    1
  1131   625   649    1
  1132   626   627   un
  1133   626   650    1
  1134   627   651    1
  1135   628   629   un
  1136   628   652    1
  1137   629   653    1
  1138   630   631   un
  1139   630   654    1
  1140   631   655    1
  1141   632   633   un
  1142   632   656    1
  1143   633   657    1
  1144   634   635   un
  1145   634   658    1
  1146   635   659    1
  1147   636   637   un
  1148   636   660    1
  1149   637   661    1
  1150   638   639   un
  1151   638   662    1
  1152   639   663    1
  1153   640   641   un
  1154   640   664    1
  1155   641   665    1
  1156   642   643   un
  1157   642   666    1
  1158   643   667    1
  1159   668   694    1
  1160   668   719    1
  1161   669   697    1
  1162   669   722    1
  1163   671   717    1
  1164   672   702    1
  1165   672   725    1
  1166   673   703    1
  1167   673   727    1
  1168   675   723    1
  1169   676   706    1
  1170   676   324    1
  1171   677   709    1
  1172   677   716    1
  1173   680   702    1
  1174   681   708    1
  1175   681   717    1
  1176   682   318    1
  1177   682   331    1
  1178   684   706    1
  1179   685   696   un
  1180   685   723    1
  1181   686   698    1
  1182   686   724    1
  1183   689   698    1
  1184   689   707    1
  1185   690   720    1
  1186   690   727    1
  1187   691   713    1
  1188   691   722    1
  1189   693   716    1
  1190   693   726    1
  1191   694   710   un
  1192   694   719   un
  1193   694   778   un
  1194   695   308   un
  1195   695   343   un
  1196   695   758   un
  1197   695   773   un
  1198   695   779   un
  1199   299   774   un
  1200   696   705   un
  1201   696   721    1
  1202   696   723   un
  1203   696   780   un
  1204   697   704   un
  1205   697   722   un
  1206   697   775   un
  1207   698   707   un
  1208   698   724   un
  1209   699   702   un
  1210   699   718   un
  1211   699   725   un
  1212   699   771   un
  1213   699   783   un
  1214   700   709   un
  1215   700   726   un
  1216   700   759   un
  1217   700   772   un
  1218   701   708   un
  1219   701   715   un
  1220   701   761   un
  1221   701   776   un
  1222   701   782   un
  1223   702   725   un
  1224   702   783   un
  1225     6   777   un
  1226   308   779   un
  1227   703   711   un
  1228   703   727   un
  1229   703   768   un
  1230   311   706   un
  1231   311   781   un
  1232   704   713   un
  1233   704   763   un
  1234   704   775   un
  1235   705   721   un
  1236   705   764   un
  1237   705   769   un
  1238   705   780   un
  1239   706   324   un
  1240   706   781   un
  1241   707   714   un
  1242   707   770   un
  1243   708   715   un
  1244   708   717   un
  1245   708   782   un
  1246   709   716   un
  1247   709   772   un
  1248   710   712   un
  1249   710   719   un
  1250   710   767   un
  1251   710   778   un
  1252   711   720   un
  1253   711   766   un
  1254   711   768   un
  1255   712   719   un
  1256   712   762   un
  1257   712   767   un
  1258   712   784   un
  1259   713   722   un
  1260   713   763   un
  1261   714   724   un
  1262   714   760   un
  1263   714   770   un
  1264   715   717   un
  1265   715   761   un
  1266   715   786   un
  1267   716   726   un
  1268   717   786   un
  1269   718   725   un
  1270   718   765   un
  1271   718   771   un
  1272   718   787   un
  1273   719   784   un
  1274   720   727   un
  1275   720   766   un
  1276   334   774   un
  1277   721   723   un
  1278   721   764   un
  1279   721   785   un
  1280   723   785   un
  1281   724   760   un
  1282   725   787   un
  1283   726   759   un
  1284    24   777   un
  1285   343   758   un
  1286   788   806   un
  1287   788   828   un
  1288   788   852   un
  1289   788  1056    1
  1290   788  1060    1
  1291   788  1072   un
  1292   788  1080   un
  1293   788  1090   un
  1294   788  1096   un
  1295   788  1119   un
  1296   788  1129   un
  1297   788  1146   un
  1298   789   801   un
  1299   789   829   un
  1300   789  1058    1
  1301   789  1075   un
  1302   789  1077   un
  1303   789  1094   un
  1304   789  1099   un
  1305   789  1109   un
  1306   789  1120   un
  1307   789  1131   un
  1308   789  1143   un
  1309   789  1149   un
  1310   790   793   un
  1311   790   794   un
  1312   790   800   un
  1313   790   804   un
  1314   790   807   un
  1315   790   830   un
  1316   790   853   un
  1317   790   876   un
  1318   790  1042    1
  1319   790  1057    1
  1320   790  1059    1
  1321   790  1061    1
  1322   791   803   un
  1323   791   831   un
  1324   791   877   un
  1325   791  1043    1
  1326   791  1055    1
  1327   791  1070   un
  1328   791  1078   un
  1329   791  1089   un
  1330   791  1100   un
  1331   791  1110   un
  1332   791  1145   un
  1333   791  1150   un
  1334   304   808   un
  1335   304   832   un
  1336   304   854   un
  1337   304  1121   un
  1338   304  1140   un
  1339   792   805   un
  1340   792   833   un
  1341   792  1066   un
  1342   792  1081   un
  1343   792  1083   un
  1344   792  1101   un
  1345   792  1111   un
  1346   792  1122   un
  1347   792  1134   un
  1348   792  1137   un
  1349   792  1147   un
  1350   793   794   un
  1351   793   797   un
  1352   793   804   un
  1353   793   810   un
  1354   793   834   un
  1355   793   856   un
  1356   793   880   un
  1357   793  1046    1
  1358   793  1053    1
  1359   793  1059    1
  1360   793  1061    1
  1361   311   835   un
  1362   311   881   un
  1363   311  1102   un
  1364   311  1112   un
  1365   311  1139   un
  1366   313   812   un
  1367   313   836   un
  1368   313   858   un
  1369   313  1052    1
  1370   316   837   un
  1371   316  1054    1
  1372   316  1071   un
  1373   316  1103   un
  1374   316  1113   un
  1375   316  1151   un
  1376   794   797   un
  1377   794   800   un
  1378   794   814   un
  1379   794   838   un
  1380   794   860   un
  1381   794   884   un
  1382   794  1049    1
  1383   794  1053    1
  1384   794  1057    1
  1385   794  1061    1
  1386   795   799   un
  1387   795   839   un
  1388   795   885   un
  1389   795  1050    1
  1390   795  1051    1
  1391   795  1067   un
  1392   795  1073   un
  1393   795  1084   un
  1394   795  1104   un
  1395   795  1114   un
  1396   795  1142   un
  1397   795  1148   un
  1398   796   816   un
  1399   796   840   un
  1400   796   862   un
  1401   796  1045    1
  1402   796  1062    1
  1403   796  1074   un
  1404   796  1082   un
  1405   796  1092   un
  1406   796  1098   un
  1407   796  1123   un
  1408   796  1136   un
  1409   796  1138   un
  1410   324   841   un
  1411   324  1124   un
  1412   324  1139   un
  1413   797   800   un
  1414   797   804   un
  1415   797   818   un
  1416   797   842   un
  1417   797   864   un
  1418   797   888   un
  1419   797  1046    1
  1420   797  1049    1
  1421   797  1053    1
  1422   797  1064    1
  1423   327   843   un
  1424   327   889   un
  1425   327  1044    1
  1426   327  1054    1
  1427   327  1071   un
  1428   798   820   un
  1429   798   844   un
  1430   798   866   un
  1431   798  1048    1
  1432   798  1065    1
  1433   798  1069   un
  1434   798  1079   un
  1435   798  1088   un
  1436   798  1095   un
  1437   798  1125   un
  1438   798  1132   un
  1439   798  1141   un
  1440   799   845   un
  1441   799  1050    1
  1442   799  1067   un
  1443   799  1084   un
  1444   799  1097   un
  1445   799  1105   un
  1446   799  1115   un
  1447   799  1126   un
  1448   799  1130   un
  1449   799  1142   un
  1450   799  1153   un
  1451   800   804   un
  1452   800   822   un
  1453   800   846   un
  1454   800   868   un
  1455   800   892   un
  1456   800  1042    1
  1457   800  1049    1
  1458   800  1057    1
  1459   800  1064    1
  1460   801   847   un
  1461   801   893   un
  1462   801  1047    1
  1463   801  1058    1
  1464   801  1077   un
  1465   801  1085   un
  1466   801  1094   un
  1467   801  1106   un
  1468   801  1116   un
  1469   801  1131   un
  1470   801  1154   un
  1471   802   824   un
  1472   802   848   un
  1473   802   870   un
  1474   802  1041    1
  1475   802  1063    1
  1476   802  1068   un
  1477   802  1076   un
  1478   802  1086   un
  1479   802  1093   un
  1480   802  1127   un
  1481   802  1135   un
  1482   802  1144   un
  1483   803   849   un
  1484   803  1043    1
  1485   803  1070   un
  1486   803  1087   un
  1487   803  1089   un
  1488   803  1107   un
  1489   803  1117   un
  1490   803  1128   un
  1491   803  1133   un
  1492   803  1145   un
  1493   803  1155   un
  1494   804   826   un
  1495   804   850   un
  1496   804   872   un
  1497   804   894   un
  1498   804  1042    1
  1499   804  1046    1
  1500   804  1059    1
  1501   804  1064    1
  1502   805   851   un
  1503   805   895   un
  1504   805  1040    1
  1505   805  1066   un
  1506   805  1083   un
  1507   805  1091   un
  1508   805  1108   un
  1509   805  1118   un
  1510   805  1134   un
  1511   805  1152   un
  1512   806   968   un
  1513   344   969   un
  1514   807   970   un
  1515   345   971   un
  1516   808   972   un
  1517   809   973   un
  1518   809  1072   un
  1519   810   974   un
  1520   811   975   un
  1521   811   310   un
  1522   812   976   un
  1523   813   977   un
  1524   813   315   un
  1525   814   978   un
  1526   815   979   un
  1527   815  1080   un
  1528   816   980   un
  1529   817   981   un
  1530   817  1086   un
  1531   818   982   un
  1532   819   983   un
  1533   819  1088   un
  1534   820   984   un
  1535   821   985   un
  1536   821  1092   un
  1537   822   986   un
  1538   823   987   un
  1539   823  1093   un
  1540   824   988   un
  1541   825   989   un
  1542   825  1095   un
  1543   826   990   un
  1544   827   991   un
  1545   827  1098   un
  1546   828   896   un
  1547   829   897   un
  1548   830   898   un
  1549   831   899   un
  1550   832   900   un
  1551   833   901   un
  1552   834   902   un
  1553   835   903   un
  1554   836   904   un
  1555   837   905   un
  1556   838   906   un
  1557   839   907   un
  1558   840   908   un
  1559   841   909   un
  1560   842   910   un
  1561   843   911   un
  1562   844   912   un
  1563   845   913   un
  1564   846   914   un
  1565   847   915   un
  1566   848   916   un
  1567   849   917   un
  1568   850   918   un
  1569   851   919   un
  1570   852   979   un
  1571   356   976   un
  1572   853   978   un
  1573   357   977   un
  1574   854   971   un
  1575   855   968   un
  1576   855  1072   un
  1577   856   970   un
  1578   857   969   un
  1579   857   310   un
  1580   858   975   un
  1581   859   972   un
  1582   859   315   un
  1583   860   974   un
  1584   861   973   un
  1585   861  1080   un
  1586   862   991   un
  1587   863   988   un
  1588   863  1086   un
  1589   864   990   un
  1590   865   989   un
  1591   865  1088   un
  1592   866   983   un
  1593   867   980   un
  1594   867  1092   un
  1595   868   982   un
  1596   869   981   un
  1597   869  1093   un
  1598   870   987   un
  1599   871   984   un
  1600   871  1095   un
  1601   872   986   un
  1602   873   985   un
  1603   873  1098   un
  1604   874   919   un
  1605   874  1066   un
  1606   875   916   un
  1607   875  1068   un
  1608   876   918   un
  1609   877   917   un
  1610   878   911   un
  1611   878  1071   un
  1612   879   908   un
  1613   879  1074   un
  1614   880   910   un
  1615   881   909   un
  1616   882   915   un
  1617   882  1077   un
  1618   883   912   un
  1619   883  1079   un
  1620   884   914   un
  1621   885   913   un
  1622   886   907   un
  1623   886  1084   un
  1624   887   904   un
  1625   887   323   un
  1626   888   906   un
  1627   889   905   un
  1628   890   899   un
  1629   890  1089   un
  1630   891   896   un
  1631   891  1090   un
  1632   892   898   un
  1633   893   897   un
  1634   378   903   un
  1635   379   900   un
  1636   894   902   un
  1637   895   901   un
  1638   896   920   un
  1639   897   921   un
  1640   898   922   un
  1641   899   923   un
  1642   900   924   un
  1643   901   925   un
  1644   902   926   un
  1645   903   927   un
  1646   904   928   un
  1647   905   929   un
  1648   906   930   un
  1649   907   931   un
  1650   908   932   un
  1651   909   933   un
  1652   910   934   un
  1653   911   935   un
  1654   912   936   un
  1655   913   937   un
  1656   914   938   un
  1657   915   939   un
  1658   916   940   un
  1659   917   941   un
  1660   918   942   un
  1661   919   943   un
  1662   920   921   un
  1663   920   944    1
  1664   921   945    1
  1665   922   923   un
  1666   922   946    1
  1667   923   947    1
  1668   924   925   un
  1669   924   948    1
  1670   925   949    1
  1671   926   927   un
  1672   926   950    1
  1673   927   951    1
  1674   928   929   un
  1675   928   952    1
  1676   929   953    1
  1677   930   931   un
  1678   930   954    1
  1679   931   955    1
  1680   932   933   un
  1681   932   956    1
  1682   933   957    1
  1683   934   935   un
  1684   934   958    1
  1685   935   959    1
  1686   936   937   un
  1687   936   960    1
  1688   937   961    1
  1689   938   939   un
  1690   938   962    1
  1691   939   963    1
  1692   940   941   un
  1693   940   964    1
  1694   941   965    1
  1695   942   943   un
  1696   942   966    1
  1697   943   967    1
  1698   968   992   un
  1699   969   993   un
  1700   970   994   un
  1701   971   995   un
  1702   972   996   un
  1703   973   997   un
  1704   974   998   un
  1705   975   999   un
  1706   976  1000   un
  1707   977  1001   un
  1708   978  1002   un
  1709   979  1003   un
  1710   980  1004   un
  1711   981  1005   un
  1712   982  1006   un
  1713   983  1007   un
  1714   984  1008   un
  1715   985  1009   un
  1716   986  1010   un
  1717   987  1011   un
  1718   988  1012   un
  1719   989  1013   un
  1720   990  1014   un
  1721   991  1015   un
  1722   992   993   un
  1723   992  1016    1
  1724   993  1017    1
  1725   994   995   un
  1726   994  1018    1
  1727   995  1019    1
  1728   996   997   un
  1729   996  1020    1
  1730   997  1021    1
  1731   998   999   un
  1732   998  1022    1
  1733   999  1023    1
  1734  1000  1001   un
  1735  1000  1024    1
  1736  1001  1025    1
  1737  1002  1003   un
  1738  1002  1026    1
  1739  1003  1027    1
  1740  1004  1005   un
  1741  1004  1028    1
  1742  1005  1029    1
  1743  1006  1007   un
  1744  1006  1030    1
  1745  1007  1031    1
  1746  1008  1009   un
  1747  1008  1032    1
  1748  1009  1033    1
  1749  1010  1011   un
  1750  1010  1034    1
  1751  1011  1035    1
  1752  1012  1013   un
  1753  1012  1036    1
  1754  1013  1037    1
  1755  1014  1015   un
  1756  1014  1038    1
  1757  1015  1039    1
  1758  1040  1066    1
  1759  1040  1091    1
  1760  1041  1068    1
  1761  1041  1093    1
  1762  1043  1089    1
  1763  1044  1071    1
  1764  1044   340    1
  1765  1045  1074    1
  1766  1045  1098    1
  1767  1047  1077    1
  1768  1047  1085    1
  1769  1048  1079    1
  1770  1048  1088    1
  1771  1050  1084    1
  1772  1051  1073    1
  1773  1051  1084    1
  1774  1052   310    1
  1775  1052   323    1
  1776  1054  1071    1
  1777  1055  1078    1
  1778  1055  1089    1
  1779  1056  1080    1
  1780  1056  1090    1
  1781  1058  1077    1
  1782  1060  1072    1
  1783  1060  1080    1
  1784  1062  1092    1
  1785  1062  1098    1
  1786  1063  1086    1
  1787  1063  1093    1
  1788  1065  1088    1
  1789  1065  1095    1
  1790  1066  1081   un
  1791  1066  1091   un
  1792  1066  1147   un
  1793  1067  1073   un
  1794  1067  1097   un
  1795  1067  1130   un
  1796  1067  1142   un
  1797  1067  1148   un
  1798  1068  1076   un
  1799  1068  1093   un
  1800  1068  1144   un
  1801   303  1071   un
  1802   303  1151   un
  1803  1069  1079   un
  1804  1069  1095   un
  1805  1069  1132   un
  1806  1069  1141   un
  1807  1070  1078   un
  1808  1070  1087   un
  1809  1070  1133   un
  1810  1070  1145   un
  1811  1070  1150   un
  1812  1071   340   un
  1813  1071  1151   un
  1814  1072  1080   un
  1815  1072  1096   un
  1816  1072  1146   un
  1817  1073  1084   un
  1818  1073  1097   un
  1819  1073  1148   un
  1820  1074  1082   un
  1821  1074  1098   un
  1822  1074  1138   un
  1823  1075  1077   un
  1824  1075  1085   un
  1825  1075  1094   un
  1826  1075  1143   un
  1827  1075  1149   un
  1828  1076  1086   un
  1829  1076  1135   un
  1830  1076  1144   un
  1831   706  1139   un
  1832  1077  1085   un
  1833  1077  1149   un
  1834   315  1140   un
  1835  1078  1087   un
  1836  1078  1089   un
  1837  1078  1150   un
  1838  1079  1088   un
  1839  1079  1141   un
  1840  1080  1090   un
  1841  1081  1083   un
  1842  1081  1091   un
  1843  1081  1137   un
  1844  1081  1147   un
  1845  1082  1092   un
  1846  1082  1136   un
  1847  1082  1138   un
  1848  1083  1091   un
  1849  1083  1134   un
  1850  1083  1137   un
  1851  1083  1152   un
  1852  1084  1097   un
  1853  1084  1153   un
  1854  1085  1094   un
  1855  1085  1154   un
  1856  1086  1093   un
  1857  1086  1135   un
  1858   326  1140   un
  1859  1087  1089   un
  1860  1087  1133   un
  1861  1087  1155   un
  1862  1088  1095   un
  1863  1089  1155   un
  1864  1090  1096   un
  1865  1090  1129   un
  1866  1091  1152   un
  1867  1092  1098   un
  1868  1092  1136   un
  1869  1094  1131   un
  1870  1094  1143   un
  1871  1094  1154   un
  1872  1095  1132   un
  1873  1096  1129   un
  1874  1096  1146   un
  1875  1097  1130   un
  1876  1097  1153   un
  1877  1066  1169   un
  1878  1066  1189   un
  1879  1066  1213   un
  1880  1066  1410    1
  1881  1066  1482   un
  1882  1068  1190   un
  1883  1068  1412    1
  1884  1068  1428   un
  1885  1068  1443   un
  1886  1068  1451   un
  1887  1068  1486   un
  1888  1156  1159   un
  1889  1156  1160   un
  1890  1156  1164   un
  1891  1156  1167   un
  1892  1156  1170   un
  1893  1156  1191   un
  1894  1156  1214   un
  1895  1156  1235   un
  1896  1156  1399    1
  1897  1156  1411    1
  1898  1156  1413    1
  1899  1156  1414    1
  1900  1157  1166   un
  1901  1157  1192   un
  1902  1157  1236   un
  1903  1157  1400    1
  1904  1157  1409    1
  1905  1157  1423   un
  1906  1157  1429   un
  1907  1157  1437   un
  1908  1157  1444   un
  1909  1157  1452   un
  1910  1157  1481   un
  1911  1157  1487   un
  1912   701  1171   un
  1913   701  1193   un
  1914   701  1215   un
  1915   701  1459   un
  1916   701  1477   un
  1917  1158  1168   un
  1918  1158  1194   un
  1919  1158  1419   un
  1920  1158  1431   un
  1921  1158  1433   un
  1922  1158  1445   un
  1923  1158  1453   un
  1924  1158  1460   un
  1925  1158  1470   un
  1926  1158  1474   un
  1927  1158  1483   un
  1928  1159  1160   un
  1929  1159  1162   un
  1930  1159  1167   un
  1931  1159  1172   un
  1932  1159  1195   un
  1933  1159  1216   un
  1934  1159  1239   un
  1935  1159  1403    1
  1936  1159  1407    1
  1937  1159  1413    1
  1938  1159  1414    1
  1939   704  1196   un
  1940   704  1240   un
  1941   704  1427   un
  1942   704  1446   un
  1943   704  1454   un
  1944   704  1476   un
  1945   704  1485   un
  1946   706  1173   un
  1947   706  1197   un
  1948   706  1217   un
  1949   709  1198   un
  1950   709  1408    1
  1951   709  1424   un
  1952   709  1447   un
  1953   709  1455   un
  1954   709  1488   un
  1955  1160  1162   un
  1956  1160  1164   un
  1957  1160  1175   un
  1958  1160  1199   un
  1959  1160  1219   un
  1960  1160  1243   un
  1961  1160  1406    1
  1962  1160  1407    1
  1963  1160  1411    1
  1964  1160  1414    1
  1965  1082  1200   un
  1966  1082  1244   un
  1967  1082  1420   un
  1968  1082  1448   un
  1969  1082  1456   un
  1970  1082  1479   un
  1971  1082  1484   un
  1972  1161  1177   un
  1973  1161  1201   un
  1974  1161  1221   un
  1975  1161  1402    1
  1976  1161  1415    1
  1977  1161  1425   un
  1978  1161  1432   un
  1979  1161  1439   un
  1980  1161  1442   un
  1981  1161  1461   un
  1982  1161  1473   un
  1983  1161  1475   un
  1984   713  1202   un
  1985   713  1427   un
  1986   713  1462   un
  1987   713  1472   un
  1988   713  1476   un
  1989  1162  1164   un
  1990  1162  1167   un
  1991  1162  1179   un
  1992  1162  1203   un
  1993  1162  1223   un
  1994  1162  1245   un
  1995  1162  1403    1
  1996  1162  1406    1
  1997  1162  1407    1
  1998  1162  1417    1
  1999   716  1204   un
  2000   716  1246   un
  2001   716  1401    1
  2002   716  1408    1
  2003   716  1424   un
  2004  1163  1181   un
  2005  1163  1205   un
  2006  1163  1225   un
  2007  1163  1405    1
  2008  1163  1418    1
  2009  1163  1422   un
  2010  1163  1430   un
  2011  1163  1436   un
  2012  1163  1441   un
  2013  1163  1463   un
  2014  1163  1468   un
  2015  1163  1478   un
  2016  1092  1206   un
  2017  1092  1420   un
  2018  1092  1464   un
  2019  1092  1467   un
  2020  1092  1479   un
  2021  1164  1167   un
  2022  1164  1183   un
  2023  1164  1207   un
  2024  1164  1227   un
  2025  1164  1249   un
  2026  1164  1399    1
  2027  1164  1406    1
  2028  1164  1411    1
  2029  1164  1417    1
  2030  1093  1208   un
  2031  1093  1250   un
  2032  1093  1404    1
  2033  1093  1412    1
  2034  1093  1428   un
  2035  1165  1185   un
  2036  1165  1209   un
  2037  1165  1229   un
  2038  1165  1398    1
  2039  1165  1416    1
  2040  1165  1421   un
  2041  1165  1426   un
  2042  1165  1434   un
  2043  1165  1440   un
  2044  1165  1465   un
  2045  1165  1471   un
  2046  1165  1480   un
  2047  1166  1210   un
  2048  1166  1400    1
  2049  1166  1423   un
  2050  1166  1435   un
  2051  1166  1437   un
  2052  1166  1449   un
  2053  1166  1457   un
  2054  1166  1466   un
  2055  1166  1469   un
  2056  1166  1481   un
  2057  1166  1490   un
  2058  1167  1187   un
  2059  1167  1211   un
  2060  1167  1231   un
  2061  1167  1251   un
  2062  1167  1399    1
  2063  1167  1403    1
  2064  1167  1413    1
  2065  1167  1417    1
  2066  1168  1212   un
  2067  1168  1252   un
  2068  1168  1397    1
  2069  1168  1419   un
  2070  1168  1433   un
  2071  1168  1438   un
  2072  1168  1450   un
  2073  1168  1458   un
  2074  1168  1470   un
  2075  1168  1489   un
  2076  1169  1325   un
  2077   728  1326   un
  2078  1170  1327   un
  2079   729  1328   un
  2080  1171  1329   un
  2081  1101  1330   un
  2082  1172  1331   un
  2083  1102  1332   un
  2084  1173  1333   un
  2085  1174  1334   un
  2086  1174   708   un
  2087  1175  1335   un
  2088  1176  1336   un
  2089  1176  1081   un
  2090  1177  1337   un
  2091  1178  1338   un
  2092  1178  1434   un
  2093  1179  1339   un
  2094  1180  1340   un
  2095  1180  1436   un
  2096  1181  1341   un
  2097  1182  1342   un
  2098  1182  1439   un
  2099  1183  1343   un
  2100  1184  1344   un
  2101  1184  1440   un
  2102  1185  1345   un
  2103  1186  1346   un
  2104  1186  1441   un
  2105  1187  1347   un
  2106  1188  1348   un
  2107  1188  1442   un
  2108  1189  1253   un
  2109  1190  1254   un
  2110  1191  1255   un
  2111  1192  1256   un
  2112  1193  1257   un
  2113  1194  1258   un
  2114  1195  1259   un
  2115  1196  1260   un
  2116  1197  1261   un
  2117  1198  1262   un
  2118  1199  1263   un
  2119  1200  1264   un
  2120  1201  1265   un
  2121  1202  1266   un
  2122  1203  1267   un
  2123  1204  1268   un
  2124  1205  1269   un
  2125  1206  1270   un
  2126  1207  1271   un
  2127  1208  1272   un
  2128  1209  1273   un
  2129  1210  1274   un
  2130  1211  1275   un
  2131  1212  1276   un
  2132  1213  1336   un
  2133   738  1333   un
  2134  1214  1335   un
  2135   739  1334   un
  2136  1215  1328   un
  2137  1111  1325   un
  2138  1216  1327   un
  2139  1112  1326   un
  2140  1217  1332   un
  2141  1218  1329   un
  2142  1218   708   un
  2143  1219  1331   un
  2144  1220  1330   un
  2145  1220  1081   un
  2146  1221  1348   un
  2147  1222  1345   un
  2148  1222  1434   un
  2149  1223  1347   un
  2150  1224  1346   un
  2151  1224  1436   un
  2152  1225  1340   un
  2153  1226  1337   un
  2154  1226  1439   un
  2155  1227  1339   un
  2156  1228  1338   un
  2157  1228  1440   un
  2158  1229  1344   un
  2159  1230  1341   un
  2160  1230  1441   un
  2161  1231  1343   un
  2162  1232  1342   un
  2163  1232  1442   un
  2164  1233  1276   un
  2165  1233  1419   un
  2166  1234  1273   un
  2167  1234  1421   un
  2168  1235  1275   un
  2169  1236  1274   un
  2170  1237  1268   un
  2171  1237  1424   un
  2172  1238  1265   un
  2173  1238  1425   un
  2174  1239  1267   un
  2175  1240  1266   un
  2176  1241  1272   un
  2177  1241  1428   un
  2178  1242  1269   un
  2179  1242  1430   un
  2180  1243  1271   un
  2181  1244  1270   un
  2182  1123  1264   un
  2183  1124  1261   un
  2184  1245  1263   un
  2185  1246  1262   un
  2186  1247  1256   un
  2187  1247  1437   un
  2188  1248  1253   un
  2189  1248  1091   un
  2190  1249  1255   un
  2191  1250  1254   un
  2192   756  1260   un
  2193   757  1257   un
  2194  1251  1259   un
  2195  1252  1258   un
  2196  1253  1277   un
  2197  1254  1278   un
  2198  1255  1279   un
  2199  1256  1280   un
  2200  1257  1281   un
  2201  1258  1282   un
  2202  1259  1283   un
  2203  1260  1284   un
  2204  1261  1285   un
  2205  1262  1286   un
  2206  1263  1287   un
  2207  1264  1288   un
  2208  1265  1289   un
  2209  1266  1290   un
  2210  1267  1291   un
  2211  1268  1292   un
  2212  1269  1293   un
  2213  1270  1294   un
  2214  1271  1295   un
  2215  1272  1296   un
  2216  1273  1297   un
  2217  1274  1298   un
  2218  1275  1299   un
  2219  1276  1300   un
  2220  1277  1278   un
  2221  1277  1301    1
  2222  1278  1302    1
  2223  1279  1280   un
  2224  1279  1303    1
  2225  1280  1304    1
  2226  1281  1282   un
  2227  1281  1305    1
  2228  1282  1306    1
  2229  1283  1284   un
  2230  1283  1307    1
  2231  1284  1308    1
  2232  1285  1286   un
  2233  1285  1309    1
  2234  1286  1310    1
  2235  1287  1288   un
  2236  1287  1311    1
  2237  1288  1312    1
  2238  1289  1290   un
  2239  1289  1313    1
  2240  1290  1314    1
  2241  1291  1292   un
  2242  1291  1315    1
  2243  1292  1316    1
  2244  1293  1294   un
  2245  1293  1317    1
  2246  1294  1318    1
  2247  1295  1296   un
  2248  1295  1319    1
  2249  1296  1320    1
  2250  1297  1298   un
  2251  1297  1321    1
  2252  1298  1322    1
  2253  1299  1300   un
  2254  1299  1323    1
  2255  1300  1324    1
  2256  1325  1349   un
  2257  1326  1350   un
  2258  1327  1351   un
  2259  1328  1352   un
  2260  1329  1353   un
  2261  1330  1354   un
  2262  1331  1355   un
  2263  1332  1356   un
  2264  1333  1357   un
  2265  1334  1358   un
  2266  1335  1359   un
  2267  1336  1360   un
  2268  1337  1361   un
  2269  1338  1362   un
  2270  1339  1363   un
  2271  1340  1364   un
  2272  1341  1365   un
  2273  1342  1366   un
  2274  1343  1367   un
  2275  1344  1368   un
  2276  1345  1369   un
  2277  1346  1370   un
  2278  1347  1371   un
  2279  1348  1372   un
  2280  1349  1350   un
  2281  1349  1373    1
  2282  1350  1374    1
  2283  1351  1352   un
  2284  1351  1375    1
  2285  1352  1376    1
  2286  1353  1354   un
  2287  1353  1377    1
  2288  1354  1378    1
  2289  1355  1356   un
  2290  1355  1379    1
  2291  1356  1380    1
  2292  1357  1358   un
  2293  1357  1381    1
  2294  1358  1382    1
  2295  1359  1360   un
  2296  1359  1383    1
  2297  1360  1384    1
  2298  1361  1362   un
  2299  1361  1385    1
  2300  1362  1386    1
  2301  1363  1364   un
  2302  1363  1387    1
  2303  1364  1388    1
  2304  1365  1366   un
  2305  1365  1389    1
  2306  1366  1390    1
  2307  1367  1368   un
  2308  1367  1391    1
  2309  1368  1392    1
  2310  1369  1370   un
  2311  1369  1393    1
  2312  1370  1394    1
  2313  1371  1372   un
  2314  1371  1395    1
  2315  1372  1396    1
  2316  1397  1419    1
  2317  1397  1438    1
  2318  1398  1421    1
  2319  1398  1440    1
  2320  1400  1437    1
  2321  1401  1424    1
  2322  1401   726    1
  2323  1402  1425    1
  2324  1402  1442    1
  2325  1404  1428    1
  2326  1404  1086    1
  2327  1405  1430    1
  2328  1405  1436    1
  2329  1408  1424    1
  2330  1409  1429    1
  2331  1409  1437    1
  2332  1410  1081    1
  2333  1410  1091    1
  2334  1412  1428    1
  2335  1415  1439    1
  2336  1415  1442    1
  2337  1416  1434    1
  2338  1416  1440    1
  2339  1418  1436    1
  2340  1418  1441    1
  2341  1419  1431   un
  2342  1419  1438   un
  2343  1419  1483   un
  2344  1420  1074   un
  2345  1420  1098   un
  2346  1420  1467   un
  2347  1420  1479   un
  2348  1420  1484   un
  2349   697  1427   un
  2350   697  1485   un
  2351  1421  1426   un
  2352  1421  1440   un
  2353  1421  1480   un
  2354   700  1424   un
  2355   700  1488   un
  2356  1422  1430   un
  2357  1422  1441   un
  2358  1422  1468   un
  2359  1422  1478   un
  2360  1423  1429   un
  2361  1423  1435   un
  2362  1423  1469   un
  2363  1423  1481   un
  2364  1423  1487   un
  2365  1424   726   un
  2366  1424  1488   un
  2367   792  1482   un
  2368  1074  1484   un
  2369  1425  1432   un
  2370  1425  1442   un
  2371  1425  1475   un
  2372  1076  1428   un
  2373  1076  1486   un
  2374  1426  1434   un
  2375  1426  1471   un
  2376  1426  1480   un
  2377  1427   722   un
  2378  1427  1472   un
  2379  1427  1476   un
  2380  1427  1485   un
  2381  1428  1086   un
  2382  1428  1486   un
  2383   708  1477   un
  2384  1429  1435   un
  2385  1429  1437   un
  2386  1429  1487   un
  2387  1430  1436   un
  2388  1430  1478   un
  2389  1431  1433   un
  2390  1431  1438   un
  2391  1431  1474   un
  2392  1431  1483   un
  2393  1432  1439   un
  2394  1432  1473   un
  2395  1432  1475   un
  2396  1433  1438   un
  2397  1433  1470   un
  2398  1433  1474   un
  2399  1433  1489   un
  2400  1434  1440   un
  2401  1434  1471   un
  2402   715  1477   un
  2403  1435  1437   un
  2404  1435  1469   un
  2405  1435  1490   un
  2406  1436  1441   un
  2407  1437  1490   un
  2408  1438  1489   un
  2409  1439  1442   un
  2410  1439  1473   un
  2411   722  1472   un
  2412  1441  1468   un
  2413   805  1482   un
  2414  1098  1467   un
  2415   297  1509   un
  2416   297  1531   un
  2417   297  1555   un
  2418   297  1820   un
  2419   297  1847   un
  2420  1491  1506   un
  2421  1491  1532   un
  2422  1491  1758    1
  2423  1491  1778   un
  2424  1491  1781   un
  2425  1491  1795   un
  2426  1491  1800   un
  2427  1491  1810   un
  2428  1491  1821   un
  2429  1491  1831   un
  2430  1491  1844   un
  2431  1491  1850   un
  2432  1492  1493   un
  2433  1492  1497   un
  2434  1492  1505   un
  2435  1492  1508   un
  2436  1492  1511   un
  2437  1492  1533   un
  2438  1492  1557   un
  2439  1492  1579   un
  2440  1492  1744    1
  2441  1492  1757    1
  2442  1492  1761    1
  2443  1492  1763    1
  2444   303  1534   un
  2445   303  1580   un
  2446   303  1801   un
  2447   303  1811   un
  2448   303  1846   un
  2449   305  1513   un
  2450   305  1535   un
  2451   305  1559   un
  2452   305  1760    1
  2453   308  1536   un
  2454   308  1802   un
  2455   308  1812   un
  2456  1493  1497   un
  2457  1493  1501   un
  2458  1493  1508   un
  2459  1493  1515   un
  2460  1493  1537   un
  2461  1493  1561   un
  2462  1493  1583   un
  2463  1493  1747    1
  2464  1493  1755    1
  2465  1493  1761    1
  2466  1493  1763    1
  2467  1494  1500   un
  2468  1494  1538   un
  2469  1494  1584   un
  2470  1494  1748    1
  2471  1494  1759    1
  2472  1494  1770   un
  2473  1494  1780   un
  2474  1494  1794   un
  2475  1494  1803   un
  2476  1494  1813   un
  2477  1494  1839   un
  2478  1494  1849   un
  2479  1495  1517   un
  2480  1495  1539   un
  2481  1495  1563   un
  2482  1495  1754    1
  2483  1495  1762    1
  2484  1495  1769   un
  2485  1495  1777   un
  2486  1495  1785   un
  2487  1495  1791   un
  2488  1495  1822   un
  2489  1495  1834   un
  2490  1495  1843   un
  2491  1496  1502   un
  2492  1496  1540   un
  2493  1496  1756    1
  2494  1496  1772   un
  2495  1496  1774   un
  2496  1496  1789   un
  2497  1496  1804   un
  2498  1496  1814   un
  2499  1496  1823   un
  2500  1496  1836   un
  2501  1496  1840   un
  2502  1496  1851   un
  2503  1497  1501   un
  2504  1497  1505   un
  2505  1497  1518   un
  2506  1497  1541   un
  2507  1497  1564   un
  2508  1497  1587   un
  2509  1497  1751    1
  2510  1497  1755    1
  2511  1497  1757    1
  2512  1497  1763    1
  2513  1498  1504   un
  2514  1498  1542   un
  2515  1498  1588   un
  2516  1498  1752    1
  2517  1498  1753    1
  2518  1498  1768   un
  2519  1498  1775   un
  2520  1498  1784   un
  2521  1498  1805   un
  2522  1498  1815   un
  2523  1498  1842   un
  2524  1498  1848   un
  2525  1499  1519   un
  2526  1499  1543   un
  2527  1499  1565   un
  2528  1499  1746    1
  2529  1499  1764    1
  2530  1499  1776   un
  2531  1499  1783   un
  2532  1499  1790   un
  2533  1499  1799   un
  2534  1499  1824   un
  2535  1499  1837   un
  2536  1499  1838   un
  2537  1500  1544   un
  2538  1500  1748    1
  2539  1500  1780   un
  2540  1500  1792   un
  2541  1500  1794   un
  2542  1500  1806   un
  2543  1500  1816   un
  2544  1500  1825   un
  2545  1500  1835   un
  2546  1500  1839   un
  2547  1500  1853   un
  2548  1501  1505   un
  2549  1501  1508   un
  2550  1501  1521   un
  2551  1501  1545   un
  2552  1501  1567   un
  2553  1501  1591   un
  2554  1501  1747    1
  2555  1501  1751    1
  2556  1501  1755    1
  2557  1501  1766    1
  2558  1502  1546   un
  2559  1502  1592   un
  2560  1502  1745    1
  2561  1502  1756    1
  2562  1502  1774   un
  2563  1502  1789   un
  2564  1502  1796   un
  2565  1502  1807   un
  2566  1502  1817   un
  2567  1502  1836   un
  2568  1502  1855   un
  2569  1503  1523   un
  2570  1503  1547   un
  2571  1503  1569   un
  2572  1503  1750    1
  2573  1503  1767    1
  2574  1503  1773   un
  2575  1503  1782   un
  2576  1503  1788   un
  2577  1503  1797   un
  2578  1503  1826   un
  2579  1503  1832   un
  2580  1503  1841   un
  2581  1504  1548   un
  2582  1504  1752    1
  2583  1504  1768   un
  2584  1504  1784   un
  2585  1504  1798   un
  2586  1504  1808   un
  2587  1504  1818   un
  2588  1504  1827   un
  2589  1504  1830   un
  2590  1504  1842   un
  2591  1504  1852   un
  2592  1505  1508   un
  2593  1505  1525   un
  2594  1505  1549   un
  2595  1505  1571   un
  2596  1505  1593   un
  2597  1505  1744    1
  2598  1505  1751    1
  2599  1505  1757    1
  2600  1505  1766    1
  2601  1506  1550   un
  2602  1506  1594   un
  2603  1506  1749    1
  2604  1506  1758    1
  2605  1506  1781   un
  2606  1506  1786   un
  2607  1506  1795   un
  2608  1506  1809   un
  2609  1506  1819   un
  2610  1506  1831   un
  2611  1506  1854   un
  2612  1507  1527   un
  2613  1507  1551   un
  2614  1507  1573   un
  2615  1507  1743    1
  2616  1507  1765    1
  2617  1507  1771   un
  2618  1507  1779   un
  2619  1507  1787   un
  2620  1507  1793   un
  2621  1507  1828   un
  2622  1507  1833   un
  2623  1507  1845   un
  2624   340  1552   un
  2625   340  1829   un
  2626   340  1846   un
  2627  1508  1529   un
  2628  1508  1553   un
  2629  1508  1575   un
  2630  1508  1597   un
  2631  1508  1744    1
  2632  1508  1747    1
  2633  1508  1761    1
  2634  1508  1766    1
  2635   343  1554   un
  2636   343  1598   un
  2637  1509  1671   un
  2638  1510  1672   un
  2639  1510  1769   un
  2640  1511  1673   un
  2641  1512  1674   un
  2642  1512   302   un
  2643  1513  1675   un
  2644  1514  1676   un
  2645  1514   307   un
  2646  1515  1677   un
  2647  1516  1678   un
  2648  1516  1777   un
  2649  1517  1679   un
  2650   348  1680   un
  2651  1518  1681   un
  2652   349  1682   un
  2653  1519  1683   un
  2654  1520  1684   un
  2655  1520  1787   un
  2656  1521  1685   un
  2657  1522  1686   un
  2658  1522  1788   un
  2659  1523  1687   un
  2660  1524  1688   un
  2661  1524  1790   un
  2662  1525  1689   un
  2663  1526  1690   un
  2664  1526  1793   un
  2665  1527  1691   un
  2666  1528  1692   un
  2667  1528  1797   un
  2668  1529  1693   un
  2669  1530  1694   un
  2670  1530  1799   un
  2671  1531  1599   un
  2672  1532  1600   un
  2673  1533  1601   un
  2674  1534  1602   un
  2675  1535  1603   un
  2676  1536  1604   un
  2677  1537  1605   un
  2678  1538  1606   un
  2679  1539  1607   un
  2680  1540  1608   un
  2681  1541  1609   un
  2682  1542  1610   un
  2683  1543  1611   un
  2684  1544  1612   un
  2685  1545  1613   un
  2686  1546  1614   un
  2687  1547  1615   un
  2688  1548  1616   un
  2689  1549  1617   un
  2690  1550  1618   un
  2691  1551  1619   un
  2692  1552  1620   un
  2693  1553  1621   un
  2694  1554  1622   un
  2695  1555  1682   un
  2696  1556  1679   un
  2697  1556  1769   un
  2698  1557  1681   un
  2699  1558  1680   un
  2700  1558   302   un
  2701  1559  1674   un
  2702  1560  1671   un
  2703  1560   307   un
  2704  1561  1673   un
  2705  1562  1672   un
  2706  1562  1777   un
  2707  1563  1678   un
  2708   360  1675   un
  2709  1564  1677   un
  2710   361  1676   un
  2711  1565  1694   un
  2712  1566  1691   un
  2713  1566  1787   un
  2714  1567  1693   un
  2715  1568  1692   un
  2716  1568  1788   un
  2717  1569  1686   un
  2718  1570  1683   un
  2719  1570  1790   un
  2720  1571  1685   un
  2721  1572  1684   un
  2722  1572  1793   un
  2723  1573  1690   un
  2724  1574  1687   un
  2725  1574  1797   un
  2726  1575  1689   un
  2727  1576  1688   un
  2728  1576  1799   un
  2729  1577  1622   un
  2730  1577   695   un
  2731  1578  1619   un
  2732  1578  1771   un
  2733  1579  1621   un
  2734  1580  1620   un
  2735  1581  1614   un
  2736  1581  1774   un
  2737  1582  1611   un
  2738  1582  1776   un
  2739  1583  1613   un
  2740  1584  1612   un
  2741  1585  1618   un
  2742  1585  1781   un
  2743  1586  1615   un
  2744  1586  1782   un
  2745  1587  1617   un
  2746  1588  1616   un
  2747  1589  1610   un
  2748  1589  1784   un
  2749  1590  1607   un
  2750  1590  1785   un
  2751  1591  1609   un
  2752  1592  1608   un
  2753   376  1602   un
  2754   377  1599   un
  2755  1593  1601   un
  2756  1594  1600   un
  2757  1595  1606   un
  2758  1595  1794   un
  2759  1596  1603   un
  2760  1596   339   un
  2761  1597  1605   un
  2762  1598  1604   un
  2763  1599  1623   un
  2764  1600  1624   un
  2765  1601  1625   un
  2766  1602  1626   un
  2767  1603  1627   un
  2768  1604  1628   un
  2769  1605  1629   un
  2770  1606  1630   un
  2771  1607  1631   un
  2772  1608  1632   un
  2773  1609  1633   un
  2774  1610  1634   un
  2775  1611  1635   un
  2776  1612  1636   un
  2777  1613  1637   un
  2778  1614  1638   un
  2779  1615  1639   un
  2780  1616  1640   un
  2781  1617  1641   un
  2782  1618  1642   un
  2783  1619  1643   un
  2784  1620  1644   un
  2785  1621  1645   un
  2786  1622  1646   un
  2787  1623  1624   un
  2788  1623  1647    1
  2789  1624  1648    1
  2790  1625  1626   un
  2791  1625  1649    1
  2792  1626  1650    1
  2793  1627  1628   un
  2794  1627  1651    1
  2795  1628  1652    1
  2796  1629  1630   un
  2797  1629  1653    1
  2798  1630  1654    1
  2799  1631  1632   un
  2800  1631  1655    1
  2801  1632  1656    1
  2802  1633  1634   un
  2803  1633  1657    1
  2804  1634  1658    1
  2805  1635  1636   un
  2806  1635  1659    1
  2807  1636  1660    1
  2808  1637  1638   un
  2809  1637  1661    1
  2810  1638  1662    1
  2811  1639  1640   un
  2812  1639  1663    1
  2813  1640  1664    1
  2814  1641  1642   un
  2815  1641  1665    1
  2816  1642  1666    1
  2817  1643  1644   un
  2818  1643  1667    1
  2819  1644  1668    1
  2820  1645  1646   un
  2821  1645  1669    1
  2822  1646  1670    1
  2823  1671  1695   un
  2824  1672  1696   un
  2825  1673  1697   un
  2826  1674  1698   un
  2827  1675  1699   un
  2828  1676  1700   un
  2829  1677  1701   un
  2830  1678  1702   un
  2831  1679  1703   un
  2832  1680  1704   un
  2833  1681  1705   un
  2834  1682  1706   un
  2835  1683  1707   un
  2836  1684  1708   un
  2837  1685  1709   un
  2838  1686  1710   un
  2839  1687  1711   un
  2840  1688  1712   un
  2841  1689  1713   un
  2842  1690  1714   un
  2843  1691  1715   un
  2844  1692  1716   un
  2845  1693  1717   un
  2846  1694  1718   un
  2847  1695  1696   un
  2848  1695  1719    1
  2849  1696  1720    1
  2850  1697  1698   un
  2851  1697  1721    1
  2852  1698  1722    1
  2853  1699  1700   un
  2854  1699  1723    1
  2855  1700  1724    1
  2856  1701  1702   un
  2857  1701  1725    1
  2858  1702  1726    1
  2859  1703  1704   un
  2860  1703  1727    1
  2861  1704  1728    1
  2862  1705  1706   un
  2863  1705  1729    1
  2864  1706  1730    1
  2865  1707  1708   un
  2866  1707  1731    1
  2867  1708  1732    1
  2868  1709  1710   un
  2869  1709  1733    1
  2870  1710  1734    1
  2871  1711  1712   un
  2872  1711  1735    1
  2873  1712  1736    1
  2874  1713  1714   un
  2875  1713  1737    1
  2876  1714  1738    1
  2877  1715  1716   un
  2878  1715  1739    1
  2879  1716  1740    1
  2880  1717  1718   un
  2881  1717  1741    1
  2882  1718  1742    1
  2883  1743  1771    1
  2884  1743  1793    1
  2885  1745  1774    1
  2886  1745  1796    1
  2887  1746  1776    1
  2888  1746  1799    1
  2889  1748  1794    1
  2890  1749  1781    1
  2891  1749  1786    1
  2892  1750  1782    1
  2893  1750  1788    1
  2894  1752  1784    1
  2895  1753  1775    1
  2896  1753  1784    1
  2897  1754  1777    1
  2898  1754  1785    1
  2899  1756  1774    1
  2900  1758  1781    1
  2901  1759  1770   un
  2902  1759  1794    1
  2903  1760   302    1
  2904  1760   339    1
  2905  1762  1769    1
  2906  1762  1777    1
  2907  1764  1790    1
  2908  1764  1799    1
  2909  1765  1787    1
  2910  1765  1793    1
  2911  1767  1788    1
  2912  1767  1797    1
  2913  1768  1775   un
  2914  1768  1798   un
  2915  1768  1830   un
  2916  1768  1842   un
  2917  1768  1848   un
  2918  1769  1777   un
  2919  1769  1791   un
  2920  1769  1843   un
  2921  1770  1780   un
  2922  1770  1792    1
  2923  1770  1794   un
  2924  1770  1849   un
  2925  1771  1779   un
  2926  1771  1793   un
  2927  1771  1845   un
  2928  1772  1774   un
  2929  1772  1789   un
  2930  1772  1796   un
  2931  1772  1840   un
  2932  1772  1851   un
  2933  1773  1782   un
  2934  1773  1797   un
  2935  1773  1832   un
  2936  1773  1841   un
  2937  1071  1846   un
  2938  1774  1796   un
  2939  1774  1851   un
  2940   307  1847   un
  2941  1775  1784   un
  2942  1775  1798   un
  2943  1775  1848   un
  2944  1776  1783   un
  2945  1776  1799   un
  2946  1776  1838   un
  2947  1777  1785   un
  2948  1778  1781   un
  2949  1778  1786   un
  2950  1778  1795   un
  2951  1778  1844   un
  2952  1778  1850   un
  2953  1779  1787   un
  2954  1779  1833   un
  2955  1779  1845   un
  2956  1780  1792   un
  2957  1780  1835   un
  2958  1780  1839   un
  2959  1780  1849   un
  2960  1781  1786   un
  2961  1781  1850   un
  2962  1782  1788   un
  2963  1782  1841   un
  2964  1783  1790   un
  2965  1783  1837   un
  2966  1783  1838   un
  2967  1784  1798   un
  2968  1784  1852   un
  2969  1785  1791   un
  2970  1785  1834   un
  2971  1786  1795   un
  2972  1786  1854   un
  2973  1787  1793   un
  2974  1787  1833   un
  2975  1788  1797   un
  2976  1789  1796   un
  2977  1789  1836   un
  2978  1789  1840   un
  2979  1789  1855   un
  2980  1790  1799   un
  2981  1790  1837   un
  2982  1791  1834   un
  2983  1791  1843   un
  2984  1792  1794   un
  2985  1792  1835   un
  2986  1792  1853   un
  2987  1794  1853   un
  2988  1795  1831   un
  2989  1795  1844   un
  2990  1795  1854   un
  2991  1796  1855   un
  2992  1797  1832   un
  2993   342  1847   un
  2994  1798  1830   un
  2995  1798  1852   un
  2996   695  1869   un
  2997   695  1889   un
  2998   695  1913   un
  2999   695  2180   un
  3000  1771  1890   un
  3001  1771  2110    1
  3002  1771  2129   un
  3003  1771  2142   un
  3004  1771  2150   un
  3005  1771  2184   un
  3006  1856  1857   un
  3007  1856  1860   un
  3008  1856  1866   un
  3009  1856  1868   un
  3010  1856  1871   un
  3011  1856  1891   un
  3012  1856  1915   un
  3013  1856  1935   un
  3014  1856  2099    1
  3015  1856  2109    1
  3016  1856  2113    1
  3017  1856  2114    1
  3018   700  1892   un
  3019   700  1936   un
  3020   700  2143   un
  3021   700  2151   un
  3022   700  2179   un
  3023   702  1873   un
  3024   702  1893   un
  3025   702  1917   un
  3026   702  2112    1
  3027   703  1894   un
  3028   703  2119   un
  3029   703  2144   un
  3030   703  2152   un
  3031   703  2181   un
  3032  1857  1860   un
  3033  1857  1863   un
  3034  1857  1868   un
  3035  1857  1874   un
  3036  1857  1895   un
  3037  1857  1918   un
  3038  1857  1939   un
  3039  1857  2102    1
  3040  1857  2107    1
  3041  1857  2113    1
  3042  1857  2114    1
  3043  1858  1862   un
  3044  1858  1896   un
  3045  1858  1940   un
  3046  1858  2103    1
  3047  1858  2111    1
  3048  1858  2121   un
  3049  1858  2128   un
  3050  1858  2138   un
  3051  1858  2145   un
  3052  1858  2153   un
  3053  1858  2173   un
  3054  1858  2183   un
  3055  1780  1875   un
  3056  1780  1897   un
  3057  1780  1919   un
  3058  1780  2158   un
  3059  1780  2177   un
  3060  1859  1864   un
  3061  1859  1898   un
  3062  1859  2108    1
  3063  1859  2123   un
  3064  1859  2125   un
  3065  1859  2134   un
  3066  1859  2146   un
  3067  1859  2154   un
  3068  1859  2159   un
  3069  1859  2170   un
  3070  1859  2174   un
  3071  1859  2185   un
  3072  1860  1863   un
  3073  1860  1866   un
  3074  1860  1876   un
  3075  1860  1899   un
  3076  1860  1920   un
  3077  1860  1943   un
  3078  1860  2106    1
  3079  1860  2107    1
  3080  1860  2109    1
  3081  1860  2114    1
  3082  1783  1900   un
  3083  1783  1944   un
  3084  1783  2120   un
  3085  1783  2147   un
  3086  1783  2155   un
  3087  1783  2176   un
  3088  1783  2182   un
  3089  1861  1877   un
  3090  1861  1901   un
  3091  1861  1921   un
  3092  1861  2101    1
  3093  1861  2115    1
  3094  1861  2126   un
  3095  1861  2131   un
  3096  1861  2135   un
  3097  1861  2141   un
  3098  1861  2160   un
  3099  1861  2171   un
  3100  1861  2172   un
  3101  1862  1902   un
  3102  1862  2103    1
  3103  1862  2128   un
  3104  1862  2136   un
  3105  1862  2138   un
  3106  1862  2148   un
  3107  1862  2156   un
  3108  1862  2161   un
  3109  1862  2169   un
  3110  1862  2173   un
  3111  1862  2186   un
  3112  1863  1866   un
  3113  1863  1868   un
  3114  1863  1879   un
  3115  1863  1903   un
  3116  1863  1923   un
  3117  1863  1945   un
  3118  1863  2102    1
  3119  1863  2106    1
  3120  1863  2107    1
  3121  1863  2117    1
  3122  1864  1904   un
  3123  1864  1946   un
  3124  1864  2100    1
  3125  1864  2108    1
  3126  1864  2125   un
  3127  1864  2134   un
  3128  1864  2139   un
  3129  1864  2149   un
  3130  1864  2157   un
  3131  1864  2170   un
  3132  1864  2187   un
  3133  1865  1881   un
  3134  1865  1905   un
  3135  1865  1925   un
  3136  1865  2105    1
  3137  1865  2118    1
  3138  1865  2124   un
  3139  1865  2130   un
  3140  1865  2133   un
  3141  1865  2140   un
  3142  1865  2162   un
  3143  1865  2167   un
  3144  1865  2175   un
  3145  1790  1906   un
  3146  1790  2120   un
  3147  1790  2163   un
  3148  1790  2166   un
  3149  1790  2176   un
  3150  1866  1868   un
  3151  1866  1883   un
  3152  1866  1907   un
  3153  1866  1927   un
  3154  1866  1947   un
  3155  1866  2099    1
  3156  1866  2106    1
  3157  1866  2109    1
  3158  1866  2117    1
  3159  1793  1908   un
  3160  1793  1948   un
  3161  1793  2104    1
  3162  1793  2110    1
  3163  1793  2129   un
  3164  1867  1885   un
  3165  1867  1909   un
  3166  1867  1929   un
  3167  1867  2098    1
  3168  1867  2116    1
  3169  1867  2122   un
  3170  1867  2127   un
  3171  1867  2132   un
  3172  1867  2137   un
  3173  1867  2164   un
  3174  1867  2168   un
  3175  1867  2178   un
  3176   726  1910   un
  3177   726  2165   un
  3178   726  2179   un
  3179  1868  1887   un
  3180  1868  1911   un
  3181  1868  1931   un
  3182  1868  1951   un
  3183  1868  2099    1
  3184  1868  2102    1
  3185  1868  2113    1
  3186  1868  2117    1
  3187   727  1912   un
  3188   727  1952   un
  3189   727  2097    1
  3190   727  2119   un
  3191  1869  2025   un
  3192  1870  2026   un
  3193  1870  1770   un
  3194  1871  2027   un
  3195  1872  2028   un
  3196  1872   699   un
  3197  1873  2029   un
  3198  1802  2030   un
  3199  1874  2031   un
  3200  1803  2032   un
  3201  1875  2033   un
  3202   732  2034   un
  3203  1876  2035   un
  3204   733  2036   un
  3205  1877  2037   un
  3206  1878  2038   un
  3207  1878  2132   un
  3208  1879  2039   un
  3209  1880  2040   un
  3210  1880  2133   un
  3211  1881  2041   un
  3212  1882  2042   un
  3213  1882  2135   un
  3214  1883  2043   un
  3215  1884  2044   un
  3216  1884  2137   un
  3217  1885  2045   un
  3218  1886  2046   un
  3219  1886  2140   un
  3220  1887  2047   un
  3221  1888  2048   un
  3222  1888  2141   un
  3223  1889  1953   un
  3224  1890  1954   un
  3225  1891  1955   un
  3226  1892  1956   un
  3227  1893  1957   un
  3228  1894  1958   un
  3229  1895  1959   un
  3230  1896  1960   un
  3231  1897  1961   un
  3232  1898  1962   un
  3233  1899  1963   un
  3234  1900  1964   un
  3235  1901  1965   un
  3236  1902  1966   un
  3237  1903  1967   un
  3238  1904  1968   un
  3239  1905  1969   un
  3240  1906  1970   un
  3241  1907  1971   un
  3242  1908  1972   un
  3243  1909  1973   un
  3244  1910  1974   un
  3245  1911  1975   un
  3246  1912  1976   un
  3247  1913  2036   un
  3248  1914  2033   un
  3249  1914  1770   un
  3250  1915  2035   un
  3251  1916  2034   un
  3252  1916   699   un
  3253  1917  2028   un
  3254  1812  2025   un
  3255  1918  2027   un
  3256  1813  2026   un
  3257  1919  2032   un
  3258   742  2029   un
  3259  1920  2031   un
  3260   743  2030   un
  3261  1921  2048   un
  3262  1922  2045   un
  3263  1922  2132   un
  3264  1923  2047   un
  3265  1924  2046   un
  3266  1924  2133   un
  3267  1925  2040   un
  3268  1926  2037   un
  3269  1926  2135   un
  3270  1927  2039   un
  3271  1928  2038   un
  3272  1928  2137   un
  3273  1929  2044   un
  3274  1930  2041   un
  3275  1930  2140   un
  3276  1931  2043   un
  3277  1932  2042   un
  3278  1932  2141   un
  3279  1933  1976   un
  3280  1933  2119   un
  3281  1934  1973   un
  3282  1934  2122   un
  3283  1935  1975   un
  3284  1936  1974   un
  3285  1937  1968   un
  3286  1937  2125   un
  3287  1938  1965   un
  3288  1938  2126   un
  3289  1939  1967   un
  3290  1940  1966   un
  3291  1941  1972   un
  3292  1941  2129   un
  3293  1942  1969   un
  3294  1942  2130   un
  3295  1943  1971   un
  3296  1944  1970   un
  3297  1824  1964   un
  3298  1825  1961   un
  3299  1945  1963   un
  3300  1946  1962   un
  3301   754  1956   un
  3302   755  1953   un
  3303  1947  1955   un
  3304  1948  1954   un
  3305  1949  1960   un
  3306  1949  2138   un
  3307  1950  1957   un
  3308  1950   725   un
  3309  1951  1959   un
  3310  1952  1958   un
  3311  1953  1977   un
  3312  1954  1978   un
  3313  1955  1979   un
  3314  1956  1980   un
  3315  1957  1981   un
  3316  1958  1982   un
  3317  1959  1983   un
  3318  1960  1984   un
  3319  1961  1985   un
  3320  1962  1986   un
  3321  1963  1987   un
  3322  1964  1988   un
  3323  1965  1989   un
  3324  1966  1990   un
  3325  1967  1991   un
  3326  1968  1992   un
  3327  1969  1993   un
  3328  1970  1994   un
  3329  1971  1995   un
  3330  1972  1996   un
  3331  1973  1997   un
  3332  1974  1998   un
  3333  1975  1999   un
  3334  1976  2000   un
  3335  1977  1978   un
  3336  1977  2001    1
  3337  1978  2002    1
  3338  1979  1980   un
  3339  1979  2003    1
  3340  1980  2004    1
  3341  1981  1982   un
  3342  1981  2005    1
  3343  1982  2006    1
  3344  1983  1984   un
  3345  1983  2007    1
  3346  1984  2008    1
  3347  1985  1986   un
  3348  1985  2009    1
  3349  1986  2010    1
  3350  1987  1988   un
  3351  1987  2011    1
  3352  1988  2012    1
  3353  1989  1990   un
  3354  1989  2013    1
  3355  1990  2014    1
  3356  1991  1992   un
  3357  1991  2015    1
  3358  1992  2016    1
  3359  1993  1994   un
  3360  1993  2017    1
  3361  1994  2018    1
  3362  1995  1996   un
  3363  1995  2019    1
  3364  1996  2020    1
  3365  1997  1998   un
  3366  1997  2021    1
  3367  1998  2022    1
  3368  1999  2000   un
  3369  1999  2023    1
  3370  2000  2024    1
  3371  2025  2049   un
  3372  2026  2050   un
  3373  2027  2051   un
  3374  2028  2052   un
  3375  2029  2053   un
  3376  2030  2054   un
  3377  2031  2055   un
  3378  2032  2056   un
  3379  2033  2057   un
  3380  2034  2058   un
  3381  2035  2059   un
  3382  2036  2060   un
  3383  2037  2061   un
  3384  2038  2062   un
  3385  2039  2063   un
  3386  2040  2064   un
  3387  2041  2065   un
  3388  2042  2066   un
  3389  2043  2067   un
  3390  2044  2068   un
  3391  2045  2069   un
  3392  2046  2070   un
  3393  2047  2071   un
  3394  2048  2072   un
  3395  2049  2050   un
  3396  2049  2073    1
  3397  2050  2074    1
  3398  2051  2052   un
  3399  2051  2075    1
  3400  2052  2076    1
  3401  2053  2054   un
  3402  2053  2077    1
  3403  2054  2078    1
  3404  2055  2056   un
  3405  2055  2079    1
  3406  2056  2080    1
  3407  2057  2058   un
  3408  2057  2081    1
  3409  2058  2082    1
  3410  2059  2060   un
  3411  2059  2083    1
  3412  2060  2084    1
  3413  2061  2062   un
  3414  2061  2085    1
  3415  2062  2086    1
  3416  2063  2064   un
  3417  2063  2087    1
  3418  2064  2088    1
  3419  2065  2066   un
  3420  2065  2089    1
  3421  2066  2090    1
  3422  2067  2068   un
  3423  2067  2091    1
  3424  2068  2092    1
  3425  2069  2070   un
  3426  2069  2093    1
  3427  2070  2094    1
  3428  2071  2072   un
  3429  2071  2095    1
  3430  2072  2096    1
  3431  2097  2119    1
  3432  2097   720    1
  3433  2098  2122    1
  3434  2098  2137    1
  3435  2100  2125    1
  3436  2100  2139    1
  3437  2101  2126    1
  3438  2101  2141    1
  3439  2103  2138    1
  3440  2104  2129    1
  3441  2104  1787    1
  3442  2105  2130    1
  3443  2105  2133    1
  3444  2108  2125    1
  3445  2110  2129    1
  3446  2111  2121   un
  3447  2111  2138    1
  3448  2112   699    1
  3449  2112   725    1
  3450  2115  2135    1
  3451  2115  2141    1
  3452  2116  2132    1
  3453  2116  2137    1
  3454  2118  2133    1
  3455  2118  2140    1
  3456  2119   711   un
  3457  2119   720   un
  3458  2119  2181   un
  3459  2120  1776   un
  3460  2120  1799   un
  3461  2120  2166   un
  3462  2120  2176   un
  3463  2120  2182   un
  3464  1770  2177   un
  3465  2121  2128   un
  3466  2121  2136    1
  3467  2121  2138   un
  3468  2121  2183   un
  3469  2122  2127   un
  3470  2122  2137   un
  3471  2122  2178   un
  3472  2123  2125   un
  3473  2123  2134   un
  3474  2123  2139   un
  3475  2123  2174   un
  3476  2123  2185   un
  3477  2124  2130   un
  3478  2124  2140   un
  3479  2124  2167   un
  3480  2124  2175   un
  3481  1424  2179   un
  3482  2125  2139   un
  3483  2125  2185   un
  3484   308  2180   un
  3485  1776  2182   un
  3486  2126  2131   un
  3487  2126  2141   un
  3488  2126  2172   un
  3489  1779  2129   un
  3490  1779  2184   un
  3491  2127  2132   un
  3492  2127  2168   un
  3493  2127  2178   un
  3494  2128  2136   un
  3495  2128  2169   un
  3496  2128  2173   un
  3497  2128  2183   un
  3498  2129  1787   un
  3499  2129  2184   un
  3500  2130  2133   un
  3501  2130  2175   un
  3502   711  2181   un
  3503  2131  2135   un
  3504  2131  2171   un
  3505  2131  2172   un
  3506  2132  2137   un
  3507  2132  2168   un
  3508  2133  2140   un
  3509  2134  2139   un
  3510  2134  2170   un
  3511  2134  2174   un
  3512  2134  2187   un
  3513  2135  2141   un
  3514  2135  2171   un
  3515  1792  2177   un
  3516  2136  2138   un
  3517  2136  2169   un
  3518  2136  2186   un
  3519  2138  2186   un
  3520  2139  2187   un
  3521  2140  2167   un
  3522   343  2180   un
  3523  1799  2166   un
  3524  1067  2201   un
  3525  1067  2221   un
  3526  1067  2245   un
  3527  1067  2488   un
  3528  1067  2509   un
  3529  2188  2198   un
  3530  2188  2222   un
  3531  2188  2443    1
  3532  2188  2457   un
  3533  2188  2459   un
  3534  2188  2468   un
  3535  2188  2472   un
  3536  2188  2480   un
  3537  2188  2489   un
  3538  2188  2497   un
  3539  2188  2506   un
  3540  2188  2511   un
  3541  2189  2190   un
  3542  2189  2191   un
  3543  2189  2197   un
  3544  2189  2200   un
  3545  2189  2202   un
  3546  2189  2223   un
  3547  2189  2246   un
  3548  2189  2267   un
  3549  2189  2430    1
  3550  2189  2442    1
  3551  2189  2444    1
  3552  2189  2445    1
  3553  1069  2224   un
  3554  1069  2268   un
  3555  1069  2453   un
  3556  1069  2473   un
  3557  1069  2481   un
  3558  1069  2508   un
  3559  1069  2512   un
  3560  1071  2203   un
  3561  1071  2225   un
  3562  1071  2247   un
  3563  1074  2226   un
  3564  1074  2474   un
  3565  1074  2482   un
  3566  2190  2191   un
  3567  2190  2194   un
  3568  2190  2200   un
  3569  2190  2205   un
  3570  2190  2227   un
  3571  2190  2249   un
  3572  2190  2271   un
  3573  2190  2433    1
  3574  2190  2440    1
  3575  2190  2444    1
  3576  2190  2445    1
  3577  1779  2228   un
  3578  1779  2272   un
  3579  1779  2475   un
  3580  1779  2483   un
  3581  1779  2503   un
  3582  1781  2207   un
  3583  1781  2229   un
  3584  1781  2251   un
  3585  1781  2439    1
  3586  1782  2230   un
  3587  1782  2441    1
  3588  1782  2454   un
  3589  1782  2476   un
  3590  1782  2484   un
  3591  1782  2513   un
  3592  2191  2194   un
  3593  2191  2197   un
  3594  2191  2208   un
  3595  2191  2231   un
  3596  2191  2252   un
  3597  2191  2275   un
  3598  2191  2436    1
  3599  2191  2440    1
  3600  2191  2442    1
  3601  2191  2445    1
  3602  2192  2196   un
  3603  2192  2232   un
  3604  2192  2276   un
  3605  2192  2437    1
  3606  2192  2438    1
  3607  2192  2450   un
  3608  2192  2455   un
  3609  2192  2462   un
  3610  2192  2477   un
  3611  2192  2485   un
  3612  2192  2505   un
  3613  2192  2510   un
  3614  2193  2209   un
  3615  2193  2233   un
  3616  2193  2253   un
  3617  2193  2432    1
  3618  2193  2446    1
  3619  2193  2456   un
  3620  2193  2461   un
  3621  2193  2466   un
  3622  2193  2471   un
  3623  2193  2490   un
  3624  2193  2501   un
  3625  2193  2502   un
  3626  1787  2234   un
  3627  1787  2491   un
  3628  1787  2503   un
  3629  2194  2197   un
  3630  2194  2200   un
  3631  2194  2211   un
  3632  2194  2235   un
  3633  2194  2255   un
  3634  2194  2279   un
  3635  2194  2433    1
  3636  2194  2436    1
  3637  2194  2440    1
  3638  2194  2448    1
  3639  1788  2236   un
  3640  1788  2280   un
  3641  1788  2431    1
  3642  1788  2441    1
  3643  1788  2454   un
  3644  2195  2213   un
  3645  2195  2237   un
  3646  2195  2257   un
  3647  2195  2435    1
  3648  2195  2449    1
  3649  2195  2452   un
  3650  2195  2460   un
  3651  2195  2465   un
  3652  2195  2469   un
  3653  2195  2492   un
  3654  2195  2498   un
  3655  2195  2504   un
  3656  2196  2238   un
  3657  2196  2437    1
  3658  2196  2450   un
  3659  2196  2462   un
  3660  2196  2470   un
  3661  2196  2478   un
  3662  2196  2486   un
  3663  2196  2493   un
  3664  2196  2496   un
  3665  2196  2505   un
  3666  2196  2514   un
  3667  2197  2200   un
  3668  2197  2215   un
  3669  2197  2239   un
  3670  2197  2259   un
  3671  2197  2281   un
  3672  2197  2430    1
  3673  2197  2436    1
  3674  2197  2442    1
  3675  2197  2448    1
  3676  2198  2240   un
  3677  2198  2282   un
  3678  2198  2434    1
  3679  2198  2443    1
  3680  2198  2459   un
  3681  2198  2463   un
  3682  2198  2468   un
  3683  2198  2479   un
  3684  2198  2487   un
  3685  2198  2497   un
  3686  2198  2515   un
  3687  2199  2217   un
  3688  2199  2241   un
  3689  2199  2261   un
  3690  2199  2429    1
  3691  2199  2447    1
  3692  2199  2451   un
  3693  2199  2458   un
  3694  2199  2464   un
  3695  2199  2467   un
  3696  2199  2494   un
  3697  2199  2500   un
  3698  2199  2507   un
  3699  1095  2242   un
  3700  1095  2453   un
  3701  1095  2495   un
  3702  1095  2499   un
  3703  1095  2508   un
  3704  2200  2219   un
  3705  2200  2243   un
  3706  2200  2263   un
  3707  2200  2283   un
  3708  2200  2430    1
  3709  2200  2433    1
  3710  2200  2444    1
  3711  2200  2448    1
  3712  1098  2244   un
  3713  1098  2284   un
  3714  2201  2357   un
  3715  1800  2358   un
  3716  2202  2359   un
  3717  1801  2360   un
  3718  2203  2361   un
  3719  2204  2362   un
  3720  2204  1073   un
  3721  2205  2363   un
  3722  2206  2364   un
  3723  2206  1778   un
  3724  2207  2365   un
  3725  1103  2366   un
  3726  2208  2367   un
  3727  1104  2368   un
  3728  2209  2369   un
  3729  2210  2370   un
  3730  2210  2464   un
  3731  2211  2371   un
  3732  2212  2372   un
  3733  2212  2465   un
  3734  2213  2373   un
  3735  2214  2374   un
  3736  2214  2466   un
  3737  2215  2375   un
  3738  2216  2376   un
  3739  2216  2467   un
  3740  2217  2377   un
  3741  2218  2378   un
  3742  2218  2469   un
  3743  2219  2379   un
  3744  2220  2380   un
  3745  2220  2471   un
  3746  2221  2285   un
  3747  2222  2286   un
  3748  2223  2287   un
  3749  2224  2288   un
  3750  2225  2289   un
  3751  2226  2290   un
  3752  2227  2291   un
  3753  2228  2292   un
  3754  2229  2293   un
  3755  2230  2294   un
  3756  2231  2295   un
  3757  2232  2296   un
  3758  2233  2297   un
  3759  2234  2298   un
  3760  2235  2299   un
  3761  2236  2300   un
  3762  2237  2301   un
  3763  2238  2302   un
  3764  2239  2303   un
  3765  2240  2304   un
  3766  2241  2305   un
  3767  2242  2306   un
  3768  2243  2307   un
  3769  2244  2308   un
  3770  2245  2368   un
  3771  1810  2365   un
  3772  2246  2367   un
  3773  1811  2366   un
  3774  2247  2360   un
  3775  2248  2357   un
  3776  2248  1073   un
  3777  2249  2359   un
  3778  2250  2358   un
  3779  2250  1778   un
  3780  2251  2364   un
  3781  1113  2361   un
  3782  2252  2363   un
  3783  1114  2362   un
  3784  2253  2380   un
  3785  2254  2377   un
  3786  2254  2464   un
  3787  2255  2379   un
  3788  2256  2378   un
  3789  2256  2465   un
  3790  2257  2372   un
  3791  2258  2369   un
  3792  2258  2466   un
  3793  2259  2371   un
  3794  2260  2370   un
  3795  2260  2467   un
  3796  2261  2376   un
  3797  2262  2373   un
  3798  2262  2469   un
  3799  2263  2375   un
  3800  2264  2374   un
  3801  2264  2471   un
  3802  2265  2308   un
  3803  2265  1420   un
  3804  2266  2305   un
  3805  2266  2451   un
  3806  2267  2307   un
  3807  2268  2306   un
  3808  2269  2300   un
  3809  2269  2454   un
  3810  2270  2297   un
  3811  2270  2456   un
  3812  2271  2299   un
  3813  2272  2298   un
  3814  2273  2304   un
  3815  2273  2459   un
  3816  2274  2301   un
  3817  2274  2460   un
  3818  2275  2303   un
  3819  2276  2302   un
  3820  2277  2296   un
  3821  2277  2462   un
  3822  2278  2293   un
  3823  2278  1786   un
  3824  2279  2295   un
  3825  2280  2294   un
  3826  1125  2288   un
  3827  1126  2285   un
  3828  2281  2287   un
  3829  2282  2286   un
  3830  1828  2292   un
  3831  1829  2289   un
  3832  2283  2291   un
  3833  2284  2290   un
  3834  2285  2309   un
  3835  2286  2310   un
  3836  2287  2311   un
  3837  2288  2312   un
  3838  2289  2313   un
  3839  2290  2314   un
  3840  2291  2315   un
  3841  2292  2316   un
  3842  2293  2317   un
  3843  2294  2318   un
  3844  2295  2319   un
  3845  2296  2320   un
  3846  2297  2321   un
  3847  2298  2322   un
  3848  2299  2323   un
  3849  2300  2324   un
  3850  2301  2325   un
  3851  2302  2326   un
  3852  2303  2327   un
  3853  2304  2328   un
  3854  2305  2329   un
  3855  2306  2330   un
  3856  2307  2331   un
  3857  2308  2332   un
  3858  2309  2310   un
  3859  2309  2333    1
  3860  2310  2334    1
  3861  2311  2312   un
  3862  2311  2335    1
  3863  2312  2336    1
  3864  2313  2314   un
  3865  2313  2337    1
  3866  2314  2338    1
  3867  2315  2316   un
  3868  2315  2339    1
  3869  2316  2340    1
  3870  2317  2318   un
  3871  2317  2341    1
  3872  2318  2342    1
  3873  2319  2320   un
  3874  2319  2343    1
  3875  2320  2344    1
  3876  2321  2322   un
  3877  2321  2345    1
  3878  2322  2346    1
  3879  2323  2324   un
  3880  2323  2347    1
  3881  2324  2348    1
  3882  2325  2326   un
  3883  2325  2349    1
  3884  2326  2350    1
  3885  2327  2328   un
  3886  2327  2351    1
  3887  2328  2352    1
  3888  2329  2330   un
  3889  2329  2353    1
  3890  2330  2354    1
  3891  2331  2332   un
  3892  2331  2355    1
  3893  2332  2356    1
  3894  2357  2381   un
  3895  2358  2382   un
  3896  2359  2383   un
  3897  2360  2384   un
  3898  2361  2385   un
  3899  2362  2386   un
  3900  2363  2387   un
  3901  2364  2388   un
  3902  2365  2389   un
  3903  2366  2390   un
  3904  2367  2391   un
  3905  2368  2392   un
  3906  2369  2393   un
  3907  2370  2394   un
  3908  2371  2395   un
  3909  2372  2396   un
  3910  2373  2397   un
  3911  2374  2398   un
  3912  2375  2399   un
  3913  2376  2400   un
  3914  2377  2401   un
  3915  2378  2402   un
  3916  2379  2403   un
  3917  2380  2404   un
  3918  2381  2382   un
  3919  2381  2405    1
  3920  2382  2406    1
  3921  2383  2384   un
  3922  2383  2407    1
  3923  2384  2408    1
  3924  2385  2386   un
  3925  2385  2409    1
  3926  2386  2410    1
  3927  2387  2388   un
  3928  2387  2411    1
  3929  2388  2412    1
  3930  2389  2390   un
  3931  2389  2413    1
  3932  2390  2414    1
  3933  2391  2392   un
  3934  2391  2415    1
  3935  2392  2416    1
  3936  2393  2394   un
  3937  2393  2417    1
  3938  2394  2418    1
  3939  2395  2396   un
  3940  2395  2419    1
  3941  2396  2420    1
  3942  2397  2398   un
  3943  2397  2421    1
  3944  2398  2422    1
  3945  2399  2400   un
  3946  2399  2423    1
  3947  2400  2424    1
  3948  2401  2402   un
  3949  2401  2425    1
  3950  2402  2426    1
  3951  2403  2404   un
  3952  2403  2427    1
  3953  2404  2428    1
  3954  2429  2451    1
  3955  2429  2467    1
  3956  2431  2454    1
  3957  2431  1797    1
  3958  2432  2456    1
  3959  2432  2471    1
  3960  2434  2459    1
  3961  2434  2463    1
  3962  2435  2460    1
  3963  2435  2465    1
  3964  2437  2462    1
  3965  2438  2455    1
  3966  2438  2462    1
  3967  2439  1778    1
  3968  2439  1786    1
  3969  2441  2454    1
  3970  2443  2459    1
  3971  2446  2466    1
  3972  2446  2471    1
  3973  2447  2464    1
  3974  2447  2467    1
  3975  2449  2465    1
  3976  2449  2469    1
  3977  2450  2455   un
  3978  2450  2470   un
  3979  2450  2496   un
  3980  2450  2505   un
  3981  2450  2510   un
  3982  2451  2458   un
  3983  2451  2467   un
  3984  2451  2507   un
  3985  1773  2454   un
  3986  1773  2513   un
  3987  2452  2460   un
  3988  2452  2469   un
  3989  2452  2498   un
  3990  2452  2504   un
  3991  2453  1079   un
  3992  2453  1088   un
  3993  2453  2499   un
  3994  2453  2508   un
  3995  2453  2512   un
  3996  2454  1797   un
  3997  2454  2513   un
  3998  1073  2509   un
  3999  2455  2462   un
  4000  2455  2470   un
  4001  2455  2510   un
  4002  2456  2461   un
  4003  2456  2471   un
  4004  2456  2502   un
  4005  2457  2459   un
  4006  2457  2463   un
  4007  2457  2468   un
  4008  2457  2506   un
  4009  2457  2511   un
  4010  2458  2464   un
  4011  2458  2500   un
  4012  2458  2507   un
  4013  2129  2503   un
  4014  2459  2463   un
  4015  2459  2511   un
  4016  1079  2512   un
  4017  2460  2465   un
  4018  2460  2504   un
  4019  2461  2466   un
  4020  2461  2501   un
  4021  2461  2502   un
  4022  2462  2470   un
  4023  2462  2514   un
  4024  2463  2468   un
  4025  2463  2515   un
  4026  2464  2467   un
  4027  2464  2500   un
  4028  1088  2499   un
  4029  2465  2469   un
  4030  2466  2471   un
  4031  2466  2501   un
  4032  2468  2497   un
  4033  2468  2506   un
  4034  2468  2515   un
  4035  2469  2498   un
  4036  1097  2509   un
  4037  2470  2496   un
  4038  2470  2514   un
  4039  1420  2525   un
  4040  1420  2543   un
  4041  1420  2567   un
  4042  1420  2814   un
  4043  2451  2544   un
  4044  2451  2759    1
  4045  2451  2775   un
  4046  2451  2784   un
  4047  2451  2790   un
  4048  2451  2818   un
  4049  2516  2517   un
  4050  2516  2518   un
  4051  2516  2522   un
  4052  2516  2524   un
  4053  2516  2526   un
  4054  2516  2545   un
  4055  2516  2568   un
  4056  2516  2587   un
  4057  2516  2749    1
  4058  2516  2758    1
  4059  2516  2760    1
  4060  2516  2761    1
  4061  1422  2546   un
  4062  1422  2588   un
  4063  1422  2770   un
  4064  1422  2785   un
  4065  1422  2791   un
  4066  1422  2813   un
  4067  1422  2819   un
  4068  1424  2527   un
  4069  1424  2547   un
  4070  1424  2569   un
  4071  1425  2548   un
  4072  1425  2766   un
  4073  1425  2786   un
  4074  1425  2792   un
  4075  1425  2815   un
  4076  2517  2518   un
  4077  2517  2520   un
  4078  2517  2524   un
  4079  2517  2528   un
  4080  2517  2549   un
  4081  2517  2570   un
  4082  2517  2591   un
  4083  2517  2752    1
  4084  2517  2756    1
  4085  2517  2760    1
  4086  2517  2761    1
  4087  2127  2550   un
  4088  2127  2592   un
  4089  2127  2774   un
  4090  2127  2787   un
  4091  2127  2793   un
  4092  2127  2809   un
  4093  2127  2817   un
  4094  2129  2529   un
  4095  2129  2551   un
  4096  2129  2571   un
  4097  2130  2552   un
  4098  2130  2757    1
  4099  2130  2771   un
  4100  2130  2788   un
  4101  2130  2794   un
  4102  2130  2820   un
  4103  2518  2520   un
  4104  2518  2522   un
  4105  2518  2530   un
  4106  2518  2553   un
  4107  2518  2572   un
  4108  2518  2595   un
  4109  2518  2755    1
  4110  2518  2756    1
  4111  2518  2758    1
  4112  2518  2761    1
  4113  2461  2554   un
  4114  2461  2596   un
  4115  2461  2767   un
  4116  2461  2789   un
  4117  2461  2795   un
  4118  2461  2811   un
  4119  2461  2816   un
  4120  2519  2531   un
  4121  2519  2555   un
  4122  2519  2573   un
  4123  2519  2751    1
  4124  2519  2762    1
  4125  2519  2772   un
  4126  2519  2777   un
  4127  2519  2780   un
  4128  2519  2783   un
  4129  2519  2796   un
  4130  2519  2807   un
  4131  2519  2808   un
  4132  2132  2556   un
  4133  2132  2774   un
  4134  2132  2797   un
  4135  2132  2806   un
  4136  2132  2809   un
  4137  2520  2522   un
  4138  2520  2524   un
  4139  2520  2533   un
  4140  2520  2557   un
  4141  2520  2575   un
  4142  2520  2597   un
  4143  2520  2752    1
  4144  2520  2755    1
  4145  2520  2756    1
  4146  2520  2764    1
  4147  2133  2558   un
  4148  2133  2598   un
  4149  2133  2750    1
  4150  2133  2757    1
  4151  2133  2771   un
  4152  2521  2535   un
  4153  2521  2559   un
  4154  2521  2577   un
  4155  2521  2754    1
  4156  2521  2765    1
  4157  2521  2769   un
  4158  2521  2776   un
  4159  2521  2779   un
  4160  2521  2782   un
  4161  2521  2798   un
  4162  2521  2803   un
  4163  2521  2810   un
  4164  2466  2560   un
  4165  2466  2767   un
  4166  2466  2799   un
  4167  2466  2802   un
  4168  2466  2811   un
  4169  2522  2524   un
  4170  2522  2537   un
  4171  2522  2561   un
  4172  2522  2579   un
  4173  2522  2599   un
  4174  2522  2749    1
  4175  2522  2755    1
  4176  2522  2758    1
  4177  2522  2764    1
  4178  2467  2562   un
  4179  2467  2600   un
  4180  2467  2753    1
  4181  2467  2759    1
  4182  2467  2775   un
  4183  2523  2539   un
  4184  2523  2563   un
  4185  2523  2581   un
  4186  2523  2748    1
  4187  2523  2763    1
  4188  2523  2768   un
  4189  2523  2773   un
  4190  2523  2778   un
  4191  2523  2781   un
  4192  2523  2800   un
  4193  2523  2805   un
  4194  2523  2812   un
  4195  1441  2564   un
  4196  1441  2770   un
  4197  1441  2801   un
  4198  1441  2804   un
  4199  1441  2813   un
  4200  2524  2541   un
  4201  2524  2565   un
  4202  2524  2583   un
  4203  2524  2601   un
  4204  2524  2749    1
  4205  2524  2752    1
  4206  2524  2760    1
  4207  2524  2764    1
  4208  1442  2566   un
  4209  1442  2602   un
  4210  1442  2747    1
  4211  1442  2766   un
  4212  2525  2675   un
  4213  2142  2676   un
  4214  2526  2677   un
  4215  2143  2678   un
  4216  2527  2679   un
  4217  2474  2680   un
  4218  2528  2681   un
  4219  2475  2682   un
  4220  2529  2683   un
  4221  1447  2684   un
  4222  2530  2685   un
  4223  1448  2686   un
  4224  2531  2687   un
  4225  2532  2688   un
  4226  2532  2778   un
  4227  2533  2689   un
  4228  2534  2690   un
  4229  2534  2779   un
  4230  2535  2691   un
  4231  2536  2692   un
  4232  2536  2780   un
  4233  2537  2693   un
  4234  2538  2694   un
  4235  2538  2781   un
  4236  2539  2695   un
  4237  2540  2696   un
  4238  2540  2782   un
  4239  2541  2697   un
  4240  2542  2698   un
  4241  2542  2783   un
  4242  2543  2603   un
  4243  2544  2604   un
  4244  2545  2605   un
  4245  2546  2606   un
  4246  2547  2607   un
  4247  2548  2608   un
  4248  2549  2609   un
  4249  2550  2610   un
  4250  2551  2611   un
  4251  2552  2612   un
  4252  2553  2613   un
  4253  2554  2614   un
  4254  2555  2615   un
  4255  2556  2616   un
  4256  2557  2617   un
  4257  2558  2618   un
  4258  2559  2619   un
  4259  2560  2620   un
  4260  2561  2621   un
  4261  2562  2622   un
  4262  2563  2623   un
  4263  2564  2624   un
  4264  2565  2625   un
  4265  2566  2626   un
  4266  2567  2686   un
  4267  2150  2683   un
  4268  2568  2685   un
  4269  2151  2684   un
  4270  2569  2678   un
  4271  2482  2675   un
  4272  2570  2677   un
  4273  2483  2676   un
  4274  2571  2682   un
  4275  1455  2679   un
  4276  2572  2681   un
  4277  1456  2680   un
  4278  2573  2698   un
  4279  2574  2695   un
  4280  2574  2778   un
  4281  2575  2697   un
  4282  2576  2696   un
  4283  2576  2779   un
  4284  2577  2690   un
  4285  2578  2687   un
  4286  2578  2780   un
  4287  2579  2689   un
  4288  2580  2688   un
  4289  2580  2781   un
  4290  2581  2694   un
  4291  2582  2691   un
  4292  2582  2782   un
  4293  2583  2693   un
  4294  2584  2692   un
  4295  2584  2783   un
  4296  2585  2626   un
  4297  2585  2766   un
  4298  2586  2623   un
  4299  2586  2768   un
  4300  2587  2625   un
  4301  2588  2624   un
  4302  2589  2618   un
  4303  2589  2771   un
  4304  2590  2615   un
  4305  2590  2772   un
  4306  2591  2617   un
  4307  2592  2616   un
  4308  2593  2622   un
  4309  2593  2775   un
  4310  2594  2619   un
  4311  2594  2776   un
  4312  2595  2621   un
  4313  2596  2620   un
  4314  2490  2614   un
  4315  2491  2611   un
  4316  2597  2613   un
  4317  2598  2612   un
  4318  1463  2606   un
  4319  1464  2603   un
  4320  2599  2605   un
  4321  2600  2604   un
  4322  2164  2610   un
  4323  2165  2607   un
  4324  2601  2609   un
  4325  2602  2608   un
  4326  2603  2627   un
  4327  2604  2628   un
  4328  2605  2629   un
  4329  2606  2630   un
  4330  2607  2631   un
  4331  2608  2632   un
  4332  2609  2633   un
  4333  2610  2634   un
  4334  2611  2635   un
  4335  2612  2636   un
  4336  2613  2637   un
  4337  2614  2638   un
  4338  2615  2639   un
  4339  2616  2640   un
  4340  2617  2641   un
  4341  2618  2642   un
  4342  2619  2643   un
  4343  2620  2644   un
  4344  2621  2645   un
  4345  2622  2646   un
  4346  2623  2647   un
  4347  2624  2648   un
  4348  2625  2649   un
  4349  2626  2650   un
  4350  2627  2628   un
  4351  2627  2651    1
  4352  2628  2652    1
  4353  2629  2630   un
  4354  2629  2653    1
  4355  2630  2654    1
  4356  2631  2632   un
  4357  2631  2655    1
  4358  2632  2656    1
  4359  2633  2634   un
  4360  2633  2657    1
  4361  2634  2658    1
  4362  2635  2636   un
  4363  2635  2659    1
  4364  2636  2660    1
  4365  2637  2638   un
  4366  2637  2661    1
  4367  2638  2662    1
  4368  2639  2640   un
  4369  2639  2663    1
  4370  2640  2664    1
  4371  2641  2642   un
  4372  2641  2665    1
  4373  2642  2666    1
  4374  2643  2644   un
  4375  2643  2667    1
  4376  2644  2668    1
  4377  2645  2646   un
  4378  2645  2669    1
  4379  2646  2670    1
  4380  2647  2648   un
  4381  2647  2671    1
  4382  2648  2672    1
  4383  2649  2650   un
  4384  2649  2673    1
  4385  2650  2674    1
  4386  2675  2699   un
  4387  2676  2700   un
  4388  2677  2701   un
  4389  2678  2702   un
  4390  2679  2703   un
  4391  2680  2704   un
  4392  2681  2705   un
  4393  2682  2706   un
  4394  2683  2707   un
  4395  2684  2708   un
  4396  2685  2709   un
  4397  2686  2710   un
  4398  2687  2711   un
  4399  2688  2712   un
  4400  2689  2713   un
  4401  2690  2714   un
  4402  2691  2715   un
  4403  2692  2716   un
  4404  2693  2717   un
  4405  2694  2718   un
  4406  2695  2719   un
  4407  2696  2720   un
  4408  2697  2721   un
  4409  2698  2722   un
  4410  2699  2700   un
  4411  2699  2723    1
  4412  2700  2724    1
  4413  2701  2702   un
  4414  2701  2725    1
  4415  2702  2726    1
  4416  2703  2704   un
  4417  2703  2727    1
  4418  2704  2728    1
  4419  2705  2706   un
  4420  2705  2729    1
  4421  2706  2730    1
  4422  2707  2708   un
  4423  2707  2731    1
  4424  2708  2732    1
  4425  2709  2710   un
  4426  2709  2733    1
  4427  2710  2734    1
  4428  2711  2712   un
  4429  2711  2735    1
  4430  2712  2736    1
  4431  2713  2714   un
  4432  2713  2737    1
  4433  2714  2738    1
  4434  2715  2716   un
  4435  2715  2739    1
  4436  2716  2740    1
  4437  2717  2718   un
  4438  2717  2741    1
  4439  2718  2742    1
  4440  2719  2720   un
  4441  2719  2743    1
  4442  2720  2744    1
  4443  2721  2722   un
  4444  2721  2745    1
  4445  2722  2746    1
  4446  2747  2766    1
  4447  2747  1439    1
  4448  2748  2768    1
  4449  2748  2781    1
  4450  2750  2771    1
  4451  2750  2140    1
  4452  2751  2772    1
  4453  2751  2783    1
  4454  2753  2775    1
  4455  2753  2464    1
  4456  2754  2776    1
  4457  2754  2779    1
  4458  2757  2771    1
  4459  2759  2775    1
  4460  2762  2780    1
  4461  2762  2783    1
  4462  2763  2778    1
  4463  2763  2781    1
  4464  2765  2779    1
  4465  2765  2782    1
  4466  2766  1432   un
  4467  2766  1439   un
  4468  2766  2815   un
  4469  2767  2456   un
  4470  2767  2471   un
  4471  2767  2802   un
  4472  2767  2811   un
  4473  2767  2816   un
  4474  2122  2774   un
  4475  2122  2817   un
  4476  2768  2773   un
  4477  2768  2781   un
  4478  2768  2812   un
  4479  2124  2771   un
  4480  2124  2820   un
  4481  2769  2776   un
  4482  2769  2782   un
  4483  2769  2803   un
  4484  2769  2810   un
  4485  2770  1430   un
  4486  2770  1436   un
  4487  2770  2804   un
  4488  2770  2813   un
  4489  2770  2819   un
  4490  2771  2140   un
  4491  2771  2820   un
  4492  1074  2814   un
  4493  2456  2816   un
  4494  2772  2777   un
  4495  2772  2783   un
  4496  2772  2808   un
  4497  2458  2775   un
  4498  2458  2818   un
  4499  2773  2778   un
  4500  2773  2805   un
  4501  2773  2812   un
  4502  2774  2137   un
  4503  2774  2806   un
  4504  2774  2809   un
  4505  2774  2817   un
  4506  2775  2464   un
  4507  2775  2818   un
  4508  1430  2819   un
  4509  2776  2779   un
  4510  2776  2810   un
  4511  1432  2815   un
  4512  2777  2780   un
  4513  2777  2807   un
  4514  2777  2808   un
  4515  2778  2781   un
  4516  2778  2805   un
  4517  1436  2804   un
  4518  2779  2782   un
  4519  2780  2783   un
  4520  2780  2807   un
  4521  2137  2806   un
  4522  2782  2803   un
  4523  1098  2814   un
  4524  2471  2802   un
@<TRIPOS>SUBSTRUCTURE
     1 RES1        1 GROUP             0 ****  ****    0  
@<TRIPOS>CRYSIN
   17.8348   17.8348   17.8348   90.0000   90.0000   90.0000     1     1
