
#######################################################################
#
#                 Cambridge Crystallographic Data Centre
#                                CCDC 
#
#######################################################################
#
# If this CIF has been generated from an entry in the Cambridge 
# Structural Database, then it will include bibliographic, chemical, 
# crystal, experimental, refinement or atomic coordinate data resulting 
# from the CCDC's data processing and validation procedures.
#
#######################################################################

data_image0
_symmetry_cell_setting           triclinic
_symmetry_space_group_name_H-M   'P 1'
_symmetry_Int_Tables_number      1
_space_group_name_Hall           'P 1'
loop_
_symmetry_equiv_pos_site_id
_symmetry_equiv_pos_as_xyz
1 x,y,z
_cell_length_a                   17.8348
_cell_length_b                   17.8348
_cell_length_c                   17.8348
_cell_angle_alpha                90
_cell_angle_beta                 90
_cell_angle_gamma                90
_cell_volume                     5672.89
loop_
_atom_site_label
_atom_site_type_symbol
_atom_site_fract_x
_atom_site_fract_y
_atom_site_fract_z
_atom_site_U_iso_or_equiv
_atom_site_thermal_displace_type
Zr1 Zr 0.13785 0.51113 0.01188 0.0127 Uiso
Zr2 Zr 0.36215 0.98887 0.01188 0.0127 Uiso
Zr3 Zr 0.36215 0.51113 0.48812 0.0127 Uiso
Zr4 Zr 0.13785 0.98887 0.48812 0.0127 Uiso
Zr5 Zr 0.01188 0.13785 0.51113 0.0127 Uiso
Zr6 Zr 0.01188 0.36215 0.98887 0.0127 Uiso
Zr7 Zr 0.48812 0.36215 0.51113 0.0127 Uiso
Zr8 Zr 0.48812 0.13785 0.98887 0.0127 Uiso
Zr9 Zr 0.51113 0.01188 0.13785 0.0127 Uiso
Zr10 Zr 0.98887 0.01188 0.36215 0.0127 Uiso
Zr11 Zr 0.51113 0.48812 0.36215 0.0127 Uiso
Zr12 Zr 0.98887 0.48812 0.13785 0.0127 Uiso
Zr13 Zr 0.86215 0.48887 0.98812 0.0127 Uiso
Zr14 Zr 0.63785 0.01113 0.98812 0.0127 Uiso
Zr15 Zr 0.63785 0.48887 0.51188 0.0127 Uiso
Zr16 Zr 0.86215 0.01113 0.51188 0.0127 Uiso
Zr17 Zr 0.98812 0.86215 0.48887 0.0127 Uiso
Zr18 Zr 0.98812 0.63785 0.01113 0.0127 Uiso
Zr19 Zr 0.51188 0.63785 0.48887 0.0127 Uiso
Zr20 Zr 0.51188 0.86215 0.01113 0.0127 Uiso
Zr21 Zr 0.48887 0.98812 0.86215 0.0127 Uiso
Zr22 Zr 0.01113 0.98812 0.63785 0.0127 Uiso
Zr23 Zr 0.48887 0.51188 0.63785 0.0127 Uiso
Zr24 Zr 0.01113 0.51188 0.86215 0.0127 Uiso
O1 O 0.20900 0.40850 0.00800 0.0127 Uiso
O2 O 0.29100 0.09150 0.00800 0.0127 Uiso
O3 O 0.29100 0.40850 0.49200 0.0127 Uiso
O4 O 0.20900 0.09150 0.49200 0.0127 Uiso
O5 O 0.00800 0.20900 0.40850 0.0127 Uiso
O6 O 0.00800 0.29100 0.09150 0.0127 Uiso
O7 O 0.49200 0.29100 0.40850 0.0127 Uiso
O8 O 0.49200 0.20900 0.09150 0.0127 Uiso
O9 O 0.40850 0.00800 0.20900 0.0127 Uiso
O10 O 0.09150 0.00800 0.29100 0.0127 Uiso
O11 O 0.40850 0.49200 0.29100 0.0127 Uiso
O12 O 0.09150 0.49200 0.20900 0.0127 Uiso
O13 O 0.79100 0.59150 0.99200 0.0127 Uiso
O14 O 0.70900 0.90850 0.99200 0.0127 Uiso
O15 O 0.70900 0.59150 0.50800 0.0127 Uiso
O16 O 0.79100 0.90850 0.50800 0.0127 Uiso
O17 O 0.99200 0.79100 0.59150 0.0127 Uiso
O18 O 0.99200 0.70900 0.90850 0.0127 Uiso
O19 O 0.50800 0.70900 0.59150 0.0127 Uiso
O20 O 0.50800 0.79100 0.90850 0.0127 Uiso
O21 O 0.59150 0.99200 0.79100 0.0127 Uiso
O22 O 0.90850 0.99200 0.70900 0.0127 Uiso
O23 O 0.59150 0.50800 0.70900 0.0127 Uiso
O24 O 0.90850 0.50800 0.79100 0.0127 Uiso
O25 O 0.19040 0.62460 0.02460 0.0127 Uiso
O26 O 0.30960 0.87540 0.02460 0.0127 Uiso
O27 O 0.30960 0.62460 0.47540 0.0127 Uiso
O28 O 0.19040 0.87540 0.47540 0.0127 Uiso
O29 O 0.02460 0.19040 0.62460 0.0127 Uiso
O30 O 0.02460 0.30960 0.87540 0.0127 Uiso
O31 O 0.47540 0.30960 0.62460 0.0127 Uiso
O32 O 0.47540 0.19040 0.87540 0.0127 Uiso
O33 O 0.62460 0.02460 0.19040 0.0127 Uiso
O34 O 0.87540 0.02460 0.30960 0.0127 Uiso
O35 O 0.62460 0.47540 0.30960 0.0127 Uiso
O36 O 0.87540 0.47540 0.19040 0.0127 Uiso
O37 O 0.80960 0.37540 0.97540 0.0127 Uiso
O38 O 0.69040 0.12460 0.97540 0.0127 Uiso
O39 O 0.69040 0.37540 0.52460 0.0127 Uiso
O40 O 0.80960 0.12460 0.52460 0.0127 Uiso
O41 O 0.97540 0.80960 0.37540 0.0127 Uiso
O42 O 0.97540 0.69040 0.12460 0.0127 Uiso
O43 O 0.52460 0.69040 0.37540 0.0127 Uiso
O44 O 0.52460 0.80960 0.12460 0.0127 Uiso
O45 O 0.37540 0.97540 0.80960 0.0127 Uiso
O46 O 0.12460 0.97540 0.69040 0.0127 Uiso
O47 O 0.37540 0.52460 0.69040 0.0127 Uiso
O48 O 0.12460 0.52460 0.80960 0.0127 Uiso
O49 O 0.18960 0.50730 0.12630 0.0127 Uiso
O50 O 0.31040 -0.00730 0.12630 0.0127 Uiso
O51 O 0.31040 0.50730 0.37370 0.0127 Uiso
O52 O 0.18960 -0.00730 0.37370 0.0127 Uiso
O53 O 0.12630 0.18960 0.50730 0.0127 Uiso
O54 O 0.12630 0.31040 -0.00730 0.0127 Uiso
O55 O 0.37370 0.31040 0.50730 0.0127 Uiso
O56 O 0.37370 0.18960 -0.00730 0.0127 Uiso
O57 O 0.50730 0.12630 0.18960 0.0127 Uiso
O58 O -0.00730 0.12630 0.31040 0.0127 Uiso
O59 O 0.50730 0.37370 0.31040 0.0127 Uiso
O60 O -0.00730 0.37370 0.18960 0.0127 Uiso
O61 O 0.81040 0.49270 0.87370 0.0127 Uiso
O62 O 0.68960 1.00730 0.87370 0.0127 Uiso
O63 O 0.68960 0.49270 0.62630 0.0127 Uiso
O64 O 0.81040 1.00730 0.62630 0.0127 Uiso
O65 O 0.87370 0.81040 0.49270 0.0127 Uiso
O66 O 0.87370 0.68960 1.00730 0.0127 Uiso
O67 O 0.62630 0.68960 0.49270 0.0127 Uiso
O68 O 0.62630 0.81040 1.00730 0.0127 Uiso
O69 O 0.49270 0.87370 0.81040 0.0127 Uiso
O70 O 1.00730 0.87370 0.68960 0.0127 Uiso
O71 O 0.49270 0.62630 0.68960 0.0127 Uiso
O72 O 1.00730 0.62630 0.81040 0.0127 Uiso
O73 O 0.20880 0.52390 0.90940 0.0127 Uiso
O74 O 0.29120 0.97610 0.90940 0.0127 Uiso
O75 O 0.29120 0.52390 0.59060 0.0127 Uiso
O76 O 0.20880 0.97610 0.59060 0.0127 Uiso
O77 O 0.90940 0.20880 0.52390 0.0127 Uiso
O78 O 0.90940 0.29120 0.97610 0.0127 Uiso
O79 O 0.59060 0.29120 0.52390 0.0127 Uiso
O80 O 0.59060 0.20880 0.97610 0.0127 Uiso
O81 O 0.52390 0.90940 0.20880 0.0127 Uiso
O82 O 0.97610 0.90940 0.29120 0.0127 Uiso
O83 O 0.52390 0.59060 0.29120 0.0127 Uiso
O84 O 0.97610 0.59060 0.20880 0.0127 Uiso
O85 O 0.79120 0.47610 0.09060 0.0127 Uiso
O86 O 0.70880 0.02390 0.09060 0.0127 Uiso
O87 O 0.70880 0.47610 0.40940 0.0127 Uiso
O88 O 0.79120 0.02390 0.40940 0.0127 Uiso
O89 O 0.09060 0.79120 0.47610 0.0127 Uiso
O90 O 0.09060 0.70880 0.02390 0.0127 Uiso
O91 O 0.40940 0.70880 0.47610 0.0127 Uiso
O92 O 0.40940 0.79120 0.02390 0.0127 Uiso
O93 O 0.47610 0.09060 0.79120 0.0127 Uiso
O94 O 0.02390 0.09060 0.70880 0.0127 Uiso
O95 O 0.47610 0.40940 0.70880 0.0127 Uiso
O96 O 0.02390 0.40940 0.79120 0.0127 Uiso
C1 C 0.16040 0.68910 0.02400 0.0127 Uiso
C2 C 0.33960 0.81090 0.02400 0.0127 Uiso
C3 C 0.33960 0.68910 0.47600 0.0127 Uiso
C4 C 0.16040 0.81090 0.47600 0.0127 Uiso
C5 C 0.02400 0.16040 0.68910 0.0127 Uiso
C6 C 0.02400 0.33960 0.81090 0.0127 Uiso
C7 C 0.47600 0.33960 0.68910 0.0127 Uiso
C8 C 0.47600 0.16040 0.81090 0.0127 Uiso
C9 C 0.68910 0.02400 0.16040 0.0127 Uiso
C10 C 0.81090 0.02400 0.33960 0.0127 Uiso
C11 C 0.68910 0.47600 0.33960 0.0127 Uiso
C12 C 0.81090 0.47600 0.16040 0.0127 Uiso
C13 C 0.83960 0.31090 0.97600 0.0127 Uiso
C14 C 0.66040 0.18910 0.97600 0.0127 Uiso
C15 C 0.66040 0.31090 0.52400 0.0127 Uiso
C16 C 0.83960 0.18910 0.52400 0.0127 Uiso
C17 C 0.97600 0.83960 0.31090 0.0127 Uiso
C18 C 0.97600 0.66040 0.18910 0.0127 Uiso
C19 C 0.52400 0.66040 0.31090 0.0127 Uiso
C20 C 0.52400 0.83960 0.18910 0.0127 Uiso
C21 C 0.31090 0.97600 0.83960 0.0127 Uiso
C22 C 0.18910 0.97600 0.66040 0.0127 Uiso
C23 C 0.31090 0.52400 0.66040 0.0127 Uiso
C24 C 0.18910 0.52400 0.83960 0.0127 Uiso
C25 C 0.21420 0.75550 0.02430 0.0127 Uiso
C26 C 0.28580 0.74450 0.02430 0.0127 Uiso
C27 C 0.28580 0.75550 0.47570 0.0127 Uiso
C28 C 0.21420 0.74450 0.47570 0.0127 Uiso
C29 C 0.02430 0.21420 0.75550 0.0127 Uiso
C30 C 0.02430 0.28580 0.74450 0.0127 Uiso
C31 C 0.47570 0.28580 0.75550 0.0127 Uiso
C32 C 0.47570 0.21420 0.74450 0.0127 Uiso
C33 C 0.75550 0.02430 0.21420 0.0127 Uiso
C34 C 0.74450 0.02430 0.28580 0.0127 Uiso
C35 C 0.75550 0.47570 0.28580 0.0127 Uiso
C36 C 0.74450 0.47570 0.21420 0.0127 Uiso
C37 C 0.78580 0.24450 0.97570 0.0127 Uiso
C38 C 0.71420 0.25550 0.97570 0.0127 Uiso
C39 C 0.71420 0.24450 0.52430 0.0127 Uiso
C40 C 0.78580 0.25550 0.52430 0.0127 Uiso
C41 C 0.97570 0.78580 0.24450 0.0127 Uiso
C42 C 0.97570 0.71420 0.25550 0.0127 Uiso
C43 C 0.52430 0.71420 0.24450 0.0127 Uiso
C44 C 0.52430 0.78580 0.25550 0.0127 Uiso
C45 C 0.24450 0.97570 0.78580 0.0127 Uiso
C46 C 0.25550 0.97570 0.71420 0.0127 Uiso
C47 C 0.24450 0.52430 0.71420 0.0127 Uiso
C48 C 0.25550 0.52430 0.78580 0.0127 Uiso
H1 H 0.19550 0.80420 0.02440 0.0127 Uiso
H2 H 0.30450 0.69580 0.02440 0.0127 Uiso
H3 H 0.30450 0.80420 0.47560 0.0127 Uiso
H4 H 0.19550 0.69580 0.47560 0.0127 Uiso
H5 H 0.02440 0.19550 0.80420 0.0127 Uiso
H6 H 0.02440 0.30450 0.69580 0.0127 Uiso
H7 H 0.47560 0.30450 0.80420 0.0127 Uiso
H8 H 0.47560 0.19550 0.69580 0.0127 Uiso
H9 H 0.80420 0.02440 0.19550 0.0127 Uiso
H10 H 0.69580 0.02440 0.30450 0.0127 Uiso
H11 H 0.80420 0.47560 0.30450 0.0127 Uiso
H12 H 0.69580 0.47560 0.19550 0.0127 Uiso
H13 H 0.80450 0.19580 0.97560 0.0127 Uiso
H14 H 0.69550 0.30420 0.97560 0.0127 Uiso
H15 H 0.69550 0.19580 0.52440 0.0127 Uiso
H16 H 0.80450 0.30420 0.52440 0.0127 Uiso
H17 H 0.97560 0.80450 0.19580 0.0127 Uiso
H18 H 0.97560 0.69550 0.30420 0.0127 Uiso
H19 H 0.52440 0.69550 0.19580 0.0127 Uiso
H20 H 0.52440 0.80450 0.30420 0.0127 Uiso
H21 H 0.19580 0.97560 0.80450 0.0127 Uiso
H22 H 0.30420 0.97560 0.69550 0.0127 Uiso
H23 H 0.19580 0.52440 0.69550 0.0127 Uiso
H24 H 0.30420 0.52440 0.80450 0.0127 Uiso
C49 C 0.19060 0.33980 0.00000 0.0127 Uiso
C50 C 0.30940 0.16020 0.00000 0.0127 Uiso
C51 C 0.30940 0.33980 0.50000 0.0127 Uiso
C52 C 0.19060 0.16020 0.50000 0.0127 Uiso
C53 C 0.00000 0.19060 0.33980 0.0127 Uiso
C54 C 0.00000 0.30940 0.16020 0.0127 Uiso
C55 C 0.50000 0.30940 0.33980 0.0127 Uiso
C56 C 0.50000 0.19060 0.16020 0.0127 Uiso
C57 C 0.33980 0.00000 0.19060 0.0127 Uiso
C58 C 0.16020 0.00000 0.30940 0.0127 Uiso
C59 C 0.33980 0.50000 0.30940 0.0127 Uiso
C60 C 0.16020 0.50000 0.19060 0.0127 Uiso
C61 C 0.80940 0.66020 1.00000 0.0127 Uiso
C62 C 0.69060 0.83980 1.00000 0.0127 Uiso
C63 C 0.69060 0.66020 0.50000 0.0127 Uiso
C64 C 0.80940 0.83980 0.50000 0.0127 Uiso
C65 C 1.00000 0.80940 0.66020 0.0127 Uiso
C66 C 1.00000 0.69060 0.83980 0.0127 Uiso
C67 C 0.50000 0.69060 0.66020 0.0127 Uiso
C68 C 0.50000 0.80940 0.83980 0.0127 Uiso
C69 C 0.66020 1.00000 0.80940 0.0127 Uiso
C70 C 0.83980 1.00000 0.69060 0.0127 Uiso
C71 C 0.66020 0.50000 0.69060 0.0127 Uiso
C72 C 0.83980 0.50000 0.80940 0.0127 Uiso
C73 C 0.25670 0.28650 0.00010 0.0127 Uiso
C74 C 0.24330 0.21350 0.00010 0.0127 Uiso
C75 C 0.24330 0.28650 0.49990 0.0127 Uiso
C76 C 0.25670 0.21350 0.49990 0.0127 Uiso
C77 C 0.00010 0.25670 0.28650 0.0127 Uiso
C78 C 0.00010 0.24330 0.21350 0.0127 Uiso
C79 C 0.49990 0.24330 0.28650 0.0127 Uiso
C80 C 0.49990 0.25670 0.21350 0.0127 Uiso
C81 C 0.28650 0.00010 0.25670 0.0127 Uiso
C82 C 0.21350 0.00010 0.24330 0.0127 Uiso
C83 C 0.28650 0.49990 0.24330 0.0127 Uiso
C84 C 0.21350 0.49990 0.25670 0.0127 Uiso
C85 C 0.74330 0.71350 0.99990 0.0127 Uiso
C86 C 0.75670 0.78650 0.99990 0.0127 Uiso
C87 C 0.75670 0.71350 0.50010 0.0127 Uiso
C88 C 0.74330 0.78650 0.50010 0.0127 Uiso
C89 C 0.99990 0.74330 0.71350 0.0127 Uiso
C90 C 0.99990 0.75670 0.78650 0.0127 Uiso
C91 C 0.50010 0.75670 0.71350 0.0127 Uiso
C92 C 0.50010 0.74330 0.78650 0.0127 Uiso
C93 C 0.71350 0.99990 0.74330 0.0127 Uiso
C94 C 0.78650 0.99990 0.75670 0.0127 Uiso
C95 C 0.71350 0.50010 0.75670 0.0127 Uiso
C96 C 0.78650 0.50010 0.74330 0.0127 Uiso
H25 H 0.30560 0.30460 0.00010 0.0127 Uiso
H26 H 0.19440 0.19540 0.00010 0.0127 Uiso
H27 H 0.19440 0.30460 0.49990 0.0127 Uiso
H28 H 0.30560 0.19540 0.49990 0.0127 Uiso
H29 H 0.00010 0.30560 0.30460 0.0127 Uiso
H30 H 0.00010 0.19440 0.19540 0.0127 Uiso
H31 H 0.49990 0.19440 0.30460 0.0127 Uiso
H32 H 0.49990 0.30560 0.19540 0.0127 Uiso
H33 H 0.30460 0.00010 0.30560 0.0127 Uiso
H34 H 0.19540 0.00010 0.19440 0.0127 Uiso
H35 H 0.30460 0.49990 0.19440 0.0127 Uiso
H36 H 0.19540 0.49990 0.30560 0.0127 Uiso
H37 H 0.69440 0.69540 0.99990 0.0127 Uiso
H38 H 0.80560 0.80460 0.99990 0.0127 Uiso
H39 H 0.80560 0.69540 0.50010 0.0127 Uiso
H40 H 0.69440 0.80460 0.50010 0.0127 Uiso
H41 H 0.99990 0.69440 0.69540 0.0127 Uiso
H42 H 0.99990 0.80560 0.80460 0.0127 Uiso
H43 H 0.50010 0.80560 0.69540 0.0127 Uiso
H44 H 0.50010 0.69440 0.80460 0.0127 Uiso
H45 H 0.69540 0.99990 0.69440 0.0127 Uiso
H46 H 0.80460 0.99990 0.80560 0.0127 Uiso
H47 H 0.69540 0.50010 0.80560 0.0127 Uiso
H48 H 0.80460 0.50010 0.69440 0.0127 Uiso
O97 O 0.07650 0.59170 0.93530 0.0127 Uiso
O98 O 0.42350 0.90830 0.93530 0.0127 Uiso
O99 O 0.42350 0.59170 0.56470 0.0127 Uiso
O100 O 0.07650 0.90830 0.56470 0.0127 Uiso
O101 O 0.93530 0.07650 0.59170 0.0127 Uiso
O102 O 0.93530 0.42350 0.90830 0.0127 Uiso
O103 O 0.56470 0.42350 0.59170 0.0127 Uiso
O104 O 0.56470 0.07650 0.90830 0.0127 Uiso
O105 O 0.59170 0.93530 0.07650 0.0127 Uiso
O106 O 0.90830 0.93530 0.42350 0.0127 Uiso
O107 O 0.59170 0.56470 0.42350 0.0127 Uiso
O108 O 0.90830 0.56470 0.07650 0.0127 Uiso
O109 O 0.92350 0.40830 0.06470 0.0127 Uiso
O110 O 0.57650 0.09170 0.06470 0.0127 Uiso
O111 O 0.57650 0.40830 0.43530 0.0127 Uiso
O112 O 0.92350 0.09170 0.43530 0.0127 Uiso
O113 O 0.06470 0.92350 0.40830 0.0127 Uiso
O114 O 0.06470 0.57650 0.09170 0.0127 Uiso
O115 O 0.43530 0.57650 0.40830 0.0127 Uiso
O116 O 0.43530 0.92350 0.09170 0.0127 Uiso
O117 O 0.40830 0.06470 0.92350 0.0127 Uiso
O118 O 0.09170 0.06470 0.57650 0.0127 Uiso
O119 O 0.40830 0.43530 0.57650 0.0127 Uiso
O153 O 0.07850 0.42150 0.07850 0.0127 Uiso
O154 O 0.42150 0.07850 0.07850 0.0127 Uiso
O155 O 0.42150 0.42150 0.42150 0.0127 Uiso
O156 O 0.07850 0.07850 0.42150 0.0127 Uiso
O157 O 0.92150 0.57850 0.92150 0.0127 Uiso
O158 O 0.57850 0.92150 0.92150 0.0127 Uiso
O159 O 0.57850 0.57850 0.57850 0.0127 Uiso
O160 O 0.92150 0.92150 0.57850 0.0127 Uiso
Zr1 Zr 0.13785 0.51113 1.01188 0.0127 Uiso
Zr1 Zr 1.13785 0.51113 0.01188 0.0127 Uiso
Zr2 Zr 0.36215 -0.01113 0.01188 0.0127 Uiso
Zr2 Zr 0.36215 -0.01113 1.01188 0.0127 Uiso
Zr2 Zr 0.36215 0.98887 1.01188 0.0127 Uiso
Zr4 Zr 0.13785 -0.01113 0.48812 0.0127 Uiso
Zr4 Zr 1.13785 -0.01113 0.48812 0.0127 Uiso
Zr4 Zr 1.13785 0.98887 0.48812 0.0127 Uiso
Zr5 Zr 0.01188 1.13785 0.51113 0.0127 Uiso
Zr5 Zr 1.01188 0.13785 0.51113 0.0127 Uiso
Zr6 Zr 0.01188 0.36215 -0.01113 0.0127 Uiso
Zr6 Zr 1.01188 0.36215 -0.01113 0.0127 Uiso
Zr6 Zr 1.01188 0.36215 0.98887 0.0127 Uiso
Zr8 Zr 0.48812 0.13785 -0.01113 0.0127 Uiso
Zr8 Zr 0.48812 1.13785 -0.01113 0.0127 Uiso
Zr8 Zr 0.48812 1.13785 0.98887 0.0127 Uiso
Zr9 Zr 0.51113 0.01188 1.13785 0.0127 Uiso
Zr9 Zr 0.51113 1.01188 0.13785 0.0127 Uiso
Zr10 Zr -0.01113 0.01188 0.36215 0.0127 Uiso
Zr10 Zr -0.01113 1.01188 0.36215 0.0127 Uiso
Zr10 Zr 0.98887 1.01188 0.36215 0.0127 Uiso
Zr12 Zr -0.01113 0.48812 0.13785 0.0127 Uiso
Zr12 Zr -0.01113 0.48812 1.13785 0.0127 Uiso
Zr12 Zr 0.98887 0.48812 1.13785 0.0127 Uiso
Zr13 Zr -0.13785 0.48887 0.98812 0.0127 Uiso
Zr13 Zr 0.86215 0.48887 -0.01188 0.0127 Uiso
Zr14 Zr 0.63785 0.01113 -0.01188 0.0127 Uiso
Zr14 Zr 0.63785 1.01113 -0.01188 0.0127 Uiso
Zr14 Zr 0.63785 1.01113 0.98812 0.0127 Uiso
Zr16 Zr -0.13785 0.01113 0.51188 0.0127 Uiso
Zr16 Zr -0.13785 1.01113 0.51188 0.0127 Uiso
Zr16 Zr 0.86215 1.01113 0.51188 0.0127 Uiso
Zr17 Zr -0.01188 0.86215 0.48887 0.0127 Uiso
Zr17 Zr 0.98812 -0.13785 0.48887 0.0127 Uiso
Zr18 Zr -0.01188 0.63785 0.01113 0.0127 Uiso
Zr18 Zr -0.01188 0.63785 1.01113 0.0127 Uiso
Zr18 Zr 0.98812 0.63785 1.01113 0.0127 Uiso
Zr20 Zr 0.51188 -0.13785 0.01113 0.0127 Uiso
Zr20 Zr 0.51188 -0.13785 1.01113 0.0127 Uiso
Zr20 Zr 0.51188 0.86215 1.01113 0.0127 Uiso
Zr21 Zr 0.48887 -0.01188 0.86215 0.0127 Uiso
Zr21 Zr 0.48887 0.98812 -0.13785 0.0127 Uiso
Zr22 Zr 0.01113 -0.01188 0.63785 0.0127 Uiso
Zr22 Zr 1.01113 -0.01188 0.63785 0.0127 Uiso
Zr22 Zr 1.01113 0.98812 0.63785 0.0127 Uiso
Zr24 Zr 0.01113 0.51188 -0.13785 0.0127 Uiso
Zr24 Zr 1.01113 0.51188 -0.13785 0.0127 Uiso
Zr24 Zr 1.01113 0.51188 0.86215 0.0127 Uiso
O2 O 0.29100 1.09150 0.00800 0.0127 Uiso
O4 O 0.20900 1.09150 0.49200 0.0127 Uiso
O6 O 0.00800 0.29100 1.09150 0.0127 Uiso
O8 O 0.49200 0.20900 1.09150 0.0127 Uiso
O10 O 1.09150 0.00800 0.29100 0.0127 Uiso
O12 O 1.09150 0.49200 0.20900 0.0127 Uiso
O14 O 0.70900 -0.09150 0.99200 0.0127 Uiso
O16 O 0.79100 -0.09150 0.50800 0.0127 Uiso
O18 O 0.99200 0.70900 -0.09150 0.0127 Uiso
O20 O 0.50800 0.79100 -0.09150 0.0127 Uiso
O22 O -0.09150 0.99200 0.70900 0.0127 Uiso
O24 O -0.09150 0.50800 0.79100 0.0127 Uiso
O50 O 0.31040 0.99270 0.12630 0.0127 Uiso
O52 O 0.18960 0.99270 0.37370 0.0127 Uiso
O54 O 0.12630 0.31040 0.99270 0.0127 Uiso
O56 O 0.37370 0.18960 0.99270 0.0127 Uiso
O58 O 0.99270 0.12630 0.31040 0.0127 Uiso
O60 O 0.99270 0.37370 0.18960 0.0127 Uiso
O62 O 0.68960 0.00730 0.87370 0.0127 Uiso
O64 O 0.81040 0.00730 0.62630 0.0127 Uiso
O66 O 0.87370 0.68960 0.00730 0.0127 Uiso
O68 O 0.62630 0.81040 0.00730 0.0127 Uiso
O70 O 0.00730 0.87370 0.68960 0.0127 Uiso
O72 O 0.00730 0.62630 0.81040 0.0127 Uiso
O73 O 0.20880 0.52390 -0.09060 0.0127 Uiso
O74 O 0.29120 0.97610 -0.09060 0.0127 Uiso
O77 O -0.09060 0.20880 0.52390 0.0127 Uiso
O78 O -0.09060 0.29120 0.97610 0.0127 Uiso
O81 O 0.52390 -0.09060 0.20880 0.0127 Uiso
O82 O 0.97610 -0.09060 0.29120 0.0127 Uiso
O85 O 0.79120 0.47610 1.09060 0.0127 Uiso
O86 O 0.70880 0.02390 1.09060 0.0127 Uiso
O89 O 1.09060 0.79120 0.47610 0.0127 Uiso
O90 O 1.09060 0.70880 0.02390 0.0127 Uiso
O93 O 0.47610 1.09060 0.79120 0.0127 Uiso
O94 O 0.02390 1.09060 0.70880 0.0127 Uiso
O97 O 0.07650 0.59170 -0.06470 0.0127 Uiso
O97 O 1.07650 0.59170 -0.06470 0.0127 Uiso
O98 O 0.42350 0.90830 -0.06470 0.0127 Uiso
O100 O 1.07650 0.90830 0.56470 0.0127 Uiso
O101 O -0.06470 0.07650 0.59170 0.0127 Uiso
O101 O -0.06470 1.07650 0.59170 0.0127 Uiso
O102 O -0.06470 0.42350 0.90830 0.0127 Uiso
O104 O 0.56470 1.07650 0.90830 0.0127 Uiso
O105 O 0.59170 -0.06470 0.07650 0.0127 Uiso
O105 O 0.59170 -0.06470 1.07650 0.0127 Uiso
O106 O 0.90830 -0.06470 0.42350 0.0127 Uiso
O108 O 0.90830 0.56470 1.07650 0.0127 Uiso
O109 O -0.07650 0.40830 1.06470 0.0127 Uiso
O109 O 0.92350 0.40830 1.06470 0.0127 Uiso
O110 O 0.57650 0.09170 1.06470 0.0127 Uiso
O112 O -0.07650 0.09170 0.43530 0.0127 Uiso
O113 O 1.06470 -0.07650 0.40830 0.0127 Uiso
O113 O 1.06470 0.92350 0.40830 0.0127 Uiso
O114 O 1.06470 0.57650 0.09170 0.0127 Uiso
O116 O 0.43530 -0.07650 0.09170 0.0127 Uiso
O117 O 0.40830 1.06470 -0.07650 0.0127 Uiso
O117 O 0.40830 1.06470 0.92350 0.0127 Uiso
O118 O 0.09170 1.06470 0.57650 0.0127 Uiso
O120 O 0.09170 0.43530 -0.07650 0.0127 Uiso
O153 O 0.07850 0.42150 1.07850 0.0127 Uiso
O153 O 1.07850 0.42150 0.07850 0.0127 Uiso
O154 O 0.42150 0.07850 1.07850 0.0127 Uiso
O154 O 0.42150 1.07850 0.07850 0.0127 Uiso
O156 O 0.07850 1.07850 0.42150 0.0127 Uiso
O156 O 1.07850 0.07850 0.42150 0.0127 Uiso
O157 O -0.07850 0.57850 0.92150 0.0127 Uiso
O157 O 0.92150 0.57850 -0.07850 0.0127 Uiso
O158 O 0.57850 -0.07850 0.92150 0.0127 Uiso
O158 O 0.57850 0.92150 -0.07850 0.0127 Uiso
O160 O -0.07850 0.92150 0.57850 0.0127 Uiso
O160 O 0.92150 -0.07850 0.57850 0.0127 Uiso
Zr3 Zr 0.36215 0.51113 1.48812 0.0127 Uiso
Zr4 Zr 0.13785 0.98887 1.48812 0.0127 Uiso
Zr5 Zr 0.01188 0.13785 1.51113 0.0127 Uiso
Zr6 Zr 0.01188 0.36215 1.98887 0.0127 Uiso
Zr7 Zr 0.48812 0.36215 1.51113 0.0127 Uiso
Zr8 Zr 0.48812 0.13785 1.98887 0.0127 Uiso
Zr10 Zr 0.98887 0.01188 1.36215 0.0127 Uiso
Zr11 Zr 0.51113 0.48812 1.36215 0.0127 Uiso
Zr13 Zr 0.86215 0.48887 1.98812 0.0127 Uiso
Zr14 Zr 0.63785 0.01113 1.98812 0.0127 Uiso
Zr15 Zr 0.63785 0.48887 1.51188 0.0127 Uiso
Zr16 Zr 0.86215 0.01113 1.51188 0.0127 Uiso
Zr17 Zr 0.98812 0.86215 1.48887 0.0127 Uiso
Zr19 Zr 0.51188 0.63785 1.48887 0.0127 Uiso
Zr21 Zr 0.48887 0.98812 1.86215 0.0127 Uiso
Zr22 Zr 0.01113 0.98812 1.63785 0.0127 Uiso
Zr23 Zr 0.48887 0.51188 1.63785 0.0127 Uiso
Zr24 Zr 0.01113 0.51188 1.86215 0.0127 Uiso
O1 O 0.20900 0.40850 1.00800 0.0127 Uiso
O2 O 0.29100 0.09150 1.00800 0.0127 Uiso
O3 O 0.29100 0.40850 1.49200 0.0127 Uiso
O4 O 0.20900 0.09150 1.49200 0.0127 Uiso
O5 O 0.00800 0.20900 1.40850 0.0127 Uiso
O7 O 0.49200 0.29100 1.40850 0.0127 Uiso
O9 O 0.40850 0.00800 1.20900 0.0127 Uiso
O10 O 0.09150 0.00800 1.29100 0.0127 Uiso
O11 O 0.40850 0.49200 1.29100 0.0127 Uiso
O12 O 0.09150 0.49200 1.20900 0.0127 Uiso
O13 O 0.79100 0.59150 1.99200 0.0127 Uiso
O14 O 0.70900 0.90850 1.99200 0.0127 Uiso
O15 O 0.70900 0.59150 1.50800 0.0127 Uiso
O16 O 0.79100 0.90850 1.50800 0.0127 Uiso
O17 O 0.99200 0.79100 1.59150 0.0127 Uiso
O18 O 0.99200 0.70900 1.90850 0.0127 Uiso
O19 O 0.50800 0.70900 1.59150 0.0127 Uiso
O20 O 0.50800 0.79100 1.90850 0.0127 Uiso
O21 O 0.59150 0.99200 1.79100 0.0127 Uiso
O22 O 0.90850 0.99200 1.70900 0.0127 Uiso
O23 O 0.59150 0.50800 1.70900 0.0127 Uiso
O24 O 0.90850 0.50800 1.79100 0.0127 Uiso
O25 O 0.19040 0.62460 1.02460 0.0127 Uiso
O26 O 0.30960 0.87540 1.02460 0.0127 Uiso
O27 O 0.30960 0.62460 1.47540 0.0127 Uiso
O28 O 0.19040 0.87540 1.47540 0.0127 Uiso
O29 O 0.02460 0.19040 1.62460 0.0127 Uiso
O30 O 0.02460 0.30960 1.87540 0.0127 Uiso
O31 O 0.47540 0.30960 1.62460 0.0127 Uiso
O32 O 0.47540 0.19040 1.87540 0.0127 Uiso
O33 O 0.62460 0.02460 1.19040 0.0127 Uiso
O34 O 0.87540 0.02460 1.30960 0.0127 Uiso
O35 O 0.62460 0.47540 1.30960 0.0127 Uiso
O36 O 0.87540 0.47540 1.19040 0.0127 Uiso
O37 O 0.80960 0.37540 1.97540 0.0127 Uiso
O38 O 0.69040 0.12460 1.97540 0.0127 Uiso
O39 O 0.69040 0.37540 1.52460 0.0127 Uiso
O40 O 0.80960 0.12460 1.52460 0.0127 Uiso
O41 O 0.97540 0.80960 1.37540 0.0127 Uiso
O42 O 0.97540 0.69040 1.12460 0.0127 Uiso
O43 O 0.52460 0.69040 1.37540 0.0127 Uiso
O44 O 0.52460 0.80960 1.12460 0.0127 Uiso
O45 O 0.37540 0.97540 1.80960 0.0127 Uiso
O46 O 0.12460 0.97540 1.69040 0.0127 Uiso
O47 O 0.37540 0.52460 1.69040 0.0127 Uiso
O48 O 0.12460 0.52460 1.80960 0.0127 Uiso
O49 O 0.18960 0.50730 1.12630 0.0127 Uiso
O50 O 0.31040 -0.00730 1.12630 0.0127 Uiso
O51 O 0.31040 0.50730 1.37370 0.0127 Uiso
O52 O 0.18960 -0.00730 1.37370 0.0127 Uiso
O53 O 0.12630 0.18960 1.50730 0.0127 Uiso
O55 O 0.37370 0.31040 1.50730 0.0127 Uiso
O57 O 0.50730 0.12630 1.18960 0.0127 Uiso
O58 O -0.00730 0.12630 1.31040 0.0127 Uiso
O59 O 0.50730 0.37370 1.31040 0.0127 Uiso
O60 O -0.00730 0.37370 1.18960 0.0127 Uiso
O61 O 0.81040 0.49270 1.87370 0.0127 Uiso
O62 O 0.68960 1.00730 1.87370 0.0127 Uiso
O63 O 0.68960 0.49270 1.62630 0.0127 Uiso
O64 O 0.81040 1.00730 1.62630 0.0127 Uiso
O65 O 0.87370 0.81040 1.49270 0.0127 Uiso
O66 O 0.87370 0.68960 2.00730 0.0127 Uiso
O67 O 0.62630 0.68960 1.49270 0.0127 Uiso
O68 O 0.62630 0.81040 2.00730 0.0127 Uiso
O69 O 0.49270 0.87370 1.81040 0.0127 Uiso
O70 O 1.00730 0.87370 1.68960 0.0127 Uiso
O71 O 0.49270 0.62630 1.68960 0.0127 Uiso
O72 O 1.00730 0.62630 1.81040 0.0127 Uiso
O73 O 0.20880 0.52390 1.90940 0.0127 Uiso
O74 O 0.29120 0.97610 1.90940 0.0127 Uiso
O75 O 0.29120 0.52390 1.59060 0.0127 Uiso
O76 O 0.20880 0.97610 1.59060 0.0127 Uiso
O77 O 0.90940 0.20880 1.52390 0.0127 Uiso
O78 O 0.90940 0.29120 1.97610 0.0127 Uiso
O79 O 0.59060 0.29120 1.52390 0.0127 Uiso
O80 O 0.59060 0.20880 1.97610 0.0127 Uiso
O81 O 0.52390 0.90940 1.20880 0.0127 Uiso
O82 O 0.97610 0.90940 1.29120 0.0127 Uiso
O83 O 0.52390 0.59060 1.29120 0.0127 Uiso
O84 O 0.97610 0.59060 1.20880 0.0127 Uiso
O87 O 0.70880 0.47610 1.40940 0.0127 Uiso
O88 O 0.79120 0.02390 1.40940 0.0127 Uiso
O89 O 0.09060 0.79120 1.47610 0.0127 Uiso
O90 O 0.09060 0.70880 1.02390 0.0127 Uiso
O91 O 0.40940 0.70880 1.47610 0.0127 Uiso
O92 O 0.40940 0.79120 1.02390 0.0127 Uiso
O93 O 0.47610 0.09060 1.79120 0.0127 Uiso
O94 O 0.02390 0.09060 1.70880 0.0127 Uiso
O95 O 0.47610 0.40940 1.70880 0.0127 Uiso
O96 O 0.02390 0.40940 1.79120 0.0127 Uiso
C1 C 0.16040 0.68910 1.02400 0.0127 Uiso
C2 C 0.33960 0.81090 1.02400 0.0127 Uiso
C3 C 0.33960 0.68910 1.47600 0.0127 Uiso
C4 C 0.16040 0.81090 1.47600 0.0127 Uiso
C5 C 0.02400 0.16040 1.68910 0.0127 Uiso
C6 C 0.02400 0.33960 1.81090 0.0127 Uiso
C7 C 0.47600 0.33960 1.68910 0.0127 Uiso
C8 C 0.47600 0.16040 1.81090 0.0127 Uiso
C9 C 0.68910 0.02400 1.16040 0.0127 Uiso
C10 C 0.81090 0.02400 1.33960 0.0127 Uiso
C11 C 0.68910 0.47600 1.33960 0.0127 Uiso
C12 C 0.81090 0.47600 1.16040 0.0127 Uiso
C13 C 0.83960 0.31090 1.97600 0.0127 Uiso
C14 C 0.66040 0.18910 1.97600 0.0127 Uiso
C15 C 0.66040 0.31090 1.52400 0.0127 Uiso
C16 C 0.83960 0.18910 1.52400 0.0127 Uiso
C17 C 0.97600 0.83960 1.31090 0.0127 Uiso
C18 C 0.97600 0.66040 1.18910 0.0127 Uiso
C19 C 0.52400 0.66040 1.31090 0.0127 Uiso
C20 C 0.52400 0.83960 1.18910 0.0127 Uiso
C21 C 0.31090 0.97600 1.83960 0.0127 Uiso
C22 C 0.18910 0.97600 1.66040 0.0127 Uiso
C23 C 0.31090 0.52400 1.66040 0.0127 Uiso
C24 C 0.18910 0.52400 1.83960 0.0127 Uiso
C25 C 0.21420 0.75550 1.02430 0.0127 Uiso
C26 C 0.28580 0.74450 1.02430 0.0127 Uiso
C27 C 0.28580 0.75550 1.47570 0.0127 Uiso
C28 C 0.21420 0.74450 1.47570 0.0127 Uiso
C29 C 0.02430 0.21420 1.75550 0.0127 Uiso
C30 C 0.02430 0.28580 1.74450 0.0127 Uiso
C31 C 0.47570 0.28580 1.75550 0.0127 Uiso
C32 C 0.47570 0.21420 1.74450 0.0127 Uiso
C33 C 0.75550 0.02430 1.21420 0.0127 Uiso
C34 C 0.74450 0.02430 1.28580 0.0127 Uiso
C35 C 0.75550 0.47570 1.28580 0.0127 Uiso
C36 C 0.74450 0.47570 1.21420 0.0127 Uiso
C37 C 0.78580 0.24450 1.97570 0.0127 Uiso
C38 C 0.71420 0.25550 1.97570 0.0127 Uiso
C39 C 0.71420 0.24450 1.52430 0.0127 Uiso
C40 C 0.78580 0.25550 1.52430 0.0127 Uiso
C41 C 0.97570 0.78580 1.24450 0.0127 Uiso
C42 C 0.97570 0.71420 1.25550 0.0127 Uiso
C43 C 0.52430 0.71420 1.24450 0.0127 Uiso
C44 C 0.52430 0.78580 1.25550 0.0127 Uiso
C45 C 0.24450 0.97570 1.78580 0.0127 Uiso
C46 C 0.25550 0.97570 1.71420 0.0127 Uiso
C47 C 0.24450 0.52430 1.71420 0.0127 Uiso
C48 C 0.25550 0.52430 1.78580 0.0127 Uiso
H1 H 0.19550 0.80420 1.02440 0.0127 Uiso
H2 H 0.30450 0.69580 1.02440 0.0127 Uiso
H3 H 0.30450 0.80420 1.47560 0.0127 Uiso
H4 H 0.19550 0.69580 1.47560 0.0127 Uiso
H5 H 0.02440 0.19550 1.80420 0.0127 Uiso
H6 H 0.02440 0.30450 1.69580 0.0127 Uiso
H7 H 0.47560 0.30450 1.80420 0.0127 Uiso
H8 H 0.47560 0.19550 1.69580 0.0127 Uiso
H9 H 0.80420 0.02440 1.19550 0.0127 Uiso
H10 H 0.69580 0.02440 1.30450 0.0127 Uiso
H11 H 0.80420 0.47560 1.30450 0.0127 Uiso
H12 H 0.69580 0.47560 1.19550 0.0127 Uiso
H13 H 0.80450 0.19580 1.97560 0.0127 Uiso
H14 H 0.69550 0.30420 1.97560 0.0127 Uiso
H15 H 0.69550 0.19580 1.52440 0.0127 Uiso
H16 H 0.80450 0.30420 1.52440 0.0127 Uiso
H17 H 0.97560 0.80450 1.19580 0.0127 Uiso
H18 H 0.97560 0.69550 1.30420 0.0127 Uiso
H19 H 0.52440 0.69550 1.19580 0.0127 Uiso
H20 H 0.52440 0.80450 1.30420 0.0127 Uiso
H21 H 0.19580 0.97560 1.80450 0.0127 Uiso
H22 H 0.30420 0.97560 1.69550 0.0127 Uiso
H23 H 0.19580 0.52440 1.69550 0.0127 Uiso
H24 H 0.30420 0.52440 1.80450 0.0127 Uiso
C49 C 0.19060 0.33980 1.00000 0.0127 Uiso
C50 C 0.30940 0.16020 1.00000 0.0127 Uiso
C51 C 0.30940 0.33980 1.50000 0.0127 Uiso
C52 C 0.19060 0.16020 1.50000 0.0127 Uiso
C53 C 0.00000 0.19060 1.33980 0.0127 Uiso
C54 C 0.00000 0.30940 1.16020 0.0127 Uiso
C55 C 0.50000 0.30940 1.33980 0.0127 Uiso
C56 C 0.50000 0.19060 1.16020 0.0127 Uiso
C57 C 0.33980 0.00000 1.19060 0.0127 Uiso
C58 C 0.16020 0.00000 1.30940 0.0127 Uiso
C59 C 0.33980 0.50000 1.30940 0.0127 Uiso
C60 C 0.16020 0.50000 1.19060 0.0127 Uiso
C61 C 0.80940 0.66020 2.00000 0.0127 Uiso
C62 C 0.69060 0.83980 2.00000 0.0127 Uiso
C63 C 0.69060 0.66020 1.50000 0.0127 Uiso
C64 C 0.80940 0.83980 1.50000 0.0127 Uiso
C65 C 1.00000 0.80940 1.66020 0.0127 Uiso
C66 C 1.00000 0.69060 1.83980 0.0127 Uiso
C67 C 0.50000 0.69060 1.66020 0.0127 Uiso
C68 C 0.50000 0.80940 1.83980 0.0127 Uiso
C69 C 0.66020 1.00000 1.80940 0.0127 Uiso
C70 C 0.83980 1.00000 1.69060 0.0127 Uiso
C71 C 0.66020 0.50000 1.69060 0.0127 Uiso
C72 C 0.83980 0.50000 1.80940 0.0127 Uiso
C73 C 0.25670 0.28650 1.00010 0.0127 Uiso
C74 C 0.24330 0.21350 1.00010 0.0127 Uiso
C75 C 0.24330 0.28650 1.49990 0.0127 Uiso
C76 C 0.25670 0.21350 1.49990 0.0127 Uiso
C77 C 0.00010 0.25670 1.28650 0.0127 Uiso
C78 C 0.00010 0.24330 1.21350 0.0127 Uiso
C79 C 0.49990 0.24330 1.28650 0.0127 Uiso
C80 C 0.49990 0.25670 1.21350 0.0127 Uiso
C81 C 0.28650 0.00010 1.25670 0.0127 Uiso
C82 C 0.21350 0.00010 1.24330 0.0127 Uiso
C83 C 0.28650 0.49990 1.24330 0.0127 Uiso
C84 C 0.21350 0.49990 1.25670 0.0127 Uiso
C85 C 0.74330 0.71350 1.99990 0.0127 Uiso
C86 C 0.75670 0.78650 1.99990 0.0127 Uiso
C87 C 0.75670 0.71350 1.50010 0.0127 Uiso
C88 C 0.74330 0.78650 1.50010 0.0127 Uiso
C89 C 0.99990 0.74330 1.71350 0.0127 Uiso
C90 C 0.99990 0.75670 1.78650 0.0127 Uiso
C91 C 0.50010 0.75670 1.71350 0.0127 Uiso
C92 C 0.50010 0.74330 1.78650 0.0127 Uiso
C93 C 0.71350 0.99990 1.74330 0.0127 Uiso
C94 C 0.78650 0.99990 1.75670 0.0127 Uiso
C95 C 0.71350 0.50010 1.75670 0.0127 Uiso
C96 C 0.78650 0.50010 1.74330 0.0127 Uiso
H25 H 0.30560 0.30460 1.00010 0.0127 Uiso
H26 H 0.19440 0.19540 1.00010 0.0127 Uiso
H27 H 0.19440 0.30460 1.49990 0.0127 Uiso
H28 H 0.30560 0.19540 1.49990 0.0127 Uiso
H29 H 0.00010 0.30560 1.30460 0.0127 Uiso
H30 H 0.00010 0.19440 1.19540 0.0127 Uiso
H31 H 0.49990 0.19440 1.30460 0.0127 Uiso
H32 H 0.49990 0.30560 1.19540 0.0127 Uiso
H33 H 0.30460 0.00010 1.30560 0.0127 Uiso
H34 H 0.19540 0.00010 1.19440 0.0127 Uiso
H35 H 0.30460 0.49990 1.19440 0.0127 Uiso
H36 H 0.19540 0.49990 1.30560 0.0127 Uiso
H37 H 0.69440 0.69540 1.99990 0.0127 Uiso
H38 H 0.80560 0.80460 1.99990 0.0127 Uiso
H39 H 0.80560 0.69540 1.50010 0.0127 Uiso
H40 H 0.69440 0.80460 1.50010 0.0127 Uiso
H41 H 0.99990 0.69440 1.69540 0.0127 Uiso
H42 H 0.99990 0.80560 1.80460 0.0127 Uiso
H43 H 0.50010 0.80560 1.69540 0.0127 Uiso
H44 H 0.50010 0.69440 1.80460 0.0127 Uiso
H45 H 0.69540 0.99990 1.69440 0.0127 Uiso
H46 H 0.80460 0.99990 1.80560 0.0127 Uiso
H47 H 0.69540 0.50010 1.80560 0.0127 Uiso
H48 H 0.80460 0.50010 1.69440 0.0127 Uiso
O97 O 0.07650 0.59170 1.93530 0.0127 Uiso
O98 O 0.42350 0.90830 1.93530 0.0127 Uiso
O99 O 0.42350 0.59170 1.56470 0.0127 Uiso
O100 O 0.07650 0.90830 1.56470 0.0127 Uiso
O101 O 0.93530 0.07650 1.59170 0.0127 Uiso
O102 O 0.93530 0.42350 1.90830 0.0127 Uiso
O103 O 0.56470 0.42350 1.59170 0.0127 Uiso
O104 O 0.56470 0.07650 1.90830 0.0127 Uiso
O105 O 0.59170 0.93530 1.07650 0.0127 Uiso
O106 O 0.90830 0.93530 1.42350 0.0127 Uiso
O107 O 0.59170 0.56470 1.42350 0.0127 Uiso
O111 O 0.57650 0.40830 1.43530 0.0127 Uiso
O112 O 0.92350 0.09170 1.43530 0.0127 Uiso
O113 O 0.06470 0.92350 1.40830 0.0127 Uiso
O114 O 0.06470 0.57650 1.09170 0.0127 Uiso
O115 O 0.43530 0.57650 1.40830 0.0127 Uiso
O116 O 0.43530 0.92350 1.09170 0.0127 Uiso
O117 O 0.40830 0.06470 1.92350 0.0127 Uiso
O118 O 0.09170 0.06470 1.57650 0.0127 Uiso
O119 O 0.40830 0.43530 1.57650 0.0127 Uiso
O155 O 0.42150 0.42150 1.42150 0.0127 Uiso
O156 O 0.07850 0.07850 1.42150 0.0127 Uiso
O157 O 0.92150 0.57850 1.92150 0.0127 Uiso
O158 O 0.57850 0.92150 1.92150 0.0127 Uiso
O159 O 0.57850 0.57850 1.57850 0.0127 Uiso
O160 O 0.92150 0.92150 1.57850 0.0127 Uiso
Zr1 Zr 0.13785 0.51113 2.01188 0.0127 Uiso
Zr1 Zr 1.13785 0.51113 1.01188 0.0127 Uiso
Zr2 Zr 0.36215 -0.01113 2.01188 0.0127 Uiso
Zr2 Zr 0.36215 0.98887 2.01188 0.0127 Uiso
Zr4 Zr 0.13785 -0.01113 1.48812 0.0127 Uiso
Zr4 Zr 1.13785 -0.01113 1.48812 0.0127 Uiso
Zr4 Zr 1.13785 0.98887 1.48812 0.0127 Uiso
Zr5 Zr 0.01188 1.13785 1.51113 0.0127 Uiso
Zr5 Zr 1.01188 0.13785 1.51113 0.0127 Uiso
Zr6 Zr 1.01188 0.36215 1.98887 0.0127 Uiso
Zr8 Zr 0.48812 1.13785 1.98887 0.0127 Uiso
Zr9 Zr 0.51113 0.01188 2.13785 0.0127 Uiso
Zr9 Zr 0.51113 1.01188 1.13785 0.0127 Uiso
Zr10 Zr -0.01113 0.01188 1.36215 0.0127 Uiso
Zr10 Zr -0.01113 1.01188 1.36215 0.0127 Uiso
Zr10 Zr 0.98887 1.01188 1.36215 0.0127 Uiso
Zr12 Zr -0.01113 0.48812 2.13785 0.0127 Uiso
Zr12 Zr 0.98887 0.48812 2.13785 0.0127 Uiso
Zr13 Zr -0.13785 0.48887 1.98812 0.0127 Uiso
Zr14 Zr 0.63785 1.01113 1.98812 0.0127 Uiso
Zr16 Zr -0.13785 0.01113 1.51188 0.0127 Uiso
Zr16 Zr -0.13785 1.01113 1.51188 0.0127 Uiso
Zr16 Zr 0.86215 1.01113 1.51188 0.0127 Uiso
Zr17 Zr -0.01188 0.86215 1.48887 0.0127 Uiso
Zr17 Zr 0.98812 -0.13785 1.48887 0.0127 Uiso
Zr18 Zr -0.01188 0.63785 2.01113 0.0127 Uiso
Zr18 Zr 0.98812 0.63785 2.01113 0.0127 Uiso
Zr20 Zr 0.51188 -0.13785 2.01113 0.0127 Uiso
Zr20 Zr 0.51188 0.86215 2.01113 0.0127 Uiso
Zr21 Zr 0.48887 -0.01188 1.86215 0.0127 Uiso
Zr22 Zr 0.01113 -0.01188 1.63785 0.0127 Uiso
Zr22 Zr 1.01113 -0.01188 1.63785 0.0127 Uiso
Zr22 Zr 1.01113 0.98812 1.63785 0.0127 Uiso
Zr24 Zr 1.01113 0.51188 1.86215 0.0127 Uiso
O2 O 0.29100 1.09150 1.00800 0.0127 Uiso
O4 O 0.20900 1.09150 1.49200 0.0127 Uiso
O6 O 0.00800 0.29100 2.09150 0.0127 Uiso
O8 O 0.49200 0.20900 2.09150 0.0127 Uiso
O10 O 1.09150 0.00800 1.29100 0.0127 Uiso
O12 O 1.09150 0.49200 1.20900 0.0127 Uiso
O14 O 0.70900 -0.09150 1.99200 0.0127 Uiso
O16 O 0.79100 -0.09150 1.50800 0.0127 Uiso
O22 O -0.09150 0.99200 1.70900 0.0127 Uiso
O24 O -0.09150 0.50800 1.79100 0.0127 Uiso
O50 O 0.31040 0.99270 1.12630 0.0127 Uiso
O52 O 0.18960 0.99270 1.37370 0.0127 Uiso
O54 O 0.12630 0.31040 1.99270 0.0127 Uiso
O56 O 0.37370 0.18960 1.99270 0.0127 Uiso
O58 O 0.99270 0.12630 1.31040 0.0127 Uiso
O60 O 0.99270 0.37370 1.18960 0.0127 Uiso
O62 O 0.68960 0.00730 1.87370 0.0127 Uiso
O64 O 0.81040 0.00730 1.62630 0.0127 Uiso
O70 O 0.00730 0.87370 1.68960 0.0127 Uiso
O72 O 0.00730 0.62630 1.81040 0.0127 Uiso
O77 O -0.09060 0.20880 1.52390 0.0127 Uiso
O78 O -0.09060 0.29120 1.97610 0.0127 Uiso
O81 O 0.52390 -0.09060 1.20880 0.0127 Uiso
O82 O 0.97610 -0.09060 1.29120 0.0127 Uiso
O85 O 0.79120 0.47610 2.09060 0.0127 Uiso
O86 O 0.70880 0.02390 2.09060 0.0127 Uiso
O89 O 1.09060 0.79120 1.47610 0.0127 Uiso
O90 O 1.09060 0.70880 1.02390 0.0127 Uiso
O93 O 0.47610 1.09060 1.79120 0.0127 Uiso
O94 O 0.02390 1.09060 1.70880 0.0127 Uiso
O97 O 1.07650 0.59170 0.93530 0.0127 Uiso
O100 O 1.07650 0.90830 1.56470 0.0127 Uiso
O101 O -0.06470 0.07650 1.59170 0.0127 Uiso
O101 O -0.06470 1.07650 1.59170 0.0127 Uiso
O102 O -0.06470 0.42350 1.90830 0.0127 Uiso
O104 O 0.56470 1.07650 1.90830 0.0127 Uiso
O105 O 0.59170 -0.06470 2.07650 0.0127 Uiso
O106 O 0.90830 -0.06470 1.42350 0.0127 Uiso
O108 O 0.90830 0.56470 2.07650 0.0127 Uiso
O109 O -0.07650 0.40830 2.06470 0.0127 Uiso
O109 O 0.92350 0.40830 2.06470 0.0127 Uiso
O110 O 0.57650 0.09170 2.06470 0.0127 Uiso
O112 O -0.07650 0.09170 1.43530 0.0127 Uiso
O113 O 1.06470 -0.07650 1.40830 0.0127 Uiso
O113 O 1.06470 0.92350 1.40830 0.0127 Uiso
O114 O 1.06470 0.57650 1.09170 0.0127 Uiso
O116 O 0.43530 -0.07650 1.09170 0.0127 Uiso
O117 O 0.40830 1.06470 1.92350 0.0127 Uiso
O118 O 0.09170 1.06470 1.57650 0.0127 Uiso
O120 O 0.09170 0.43530 0.92350 0.0127 Uiso
O153 O 0.07850 0.42150 2.07850 0.0127 Uiso
O153 O 1.07850 0.42150 1.07850 0.0127 Uiso
O154 O 0.42150 0.07850 2.07850 0.0127 Uiso
O154 O 0.42150 1.07850 1.07850 0.0127 Uiso
O156 O 0.07850 1.07850 1.42150 0.0127 Uiso
O156 O 1.07850 0.07850 1.42150 0.0127 Uiso
O157 O -0.07850 0.57850 1.92150 0.0127 Uiso
O158 O 0.57850 -0.07850 1.92150 0.0127 Uiso
O160 O -0.07850 0.92150 1.57850 0.0127 Uiso
O160 O 0.92150 -0.07850 1.57850 0.0127 Uiso
Zr1 Zr 0.13785 1.51113 0.01188 0.0127 Uiso
Zr2 Zr 0.36215 1.98887 0.01188 0.0127 Uiso
Zr3 Zr 0.36215 1.51113 0.48812 0.0127 Uiso
Zr4 Zr 0.13785 1.98887 0.48812 0.0127 Uiso
Zr6 Zr 0.01188 1.36215 0.98887 0.0127 Uiso
Zr7 Zr 0.48812 1.36215 0.51113 0.0127 Uiso
Zr11 Zr 0.51113 1.48812 0.36215 0.0127 Uiso
Zr12 Zr 0.98887 1.48812 0.13785 0.0127 Uiso
Zr13 Zr 0.86215 1.48887 0.98812 0.0127 Uiso
Zr15 Zr 0.63785 1.48887 0.51188 0.0127 Uiso
Zr17 Zr 0.98812 1.86215 0.48887 0.0127 Uiso
Zr18 Zr 0.98812 1.63785 0.01113 0.0127 Uiso
Zr19 Zr 0.51188 1.63785 0.48887 0.0127 Uiso
Zr20 Zr 0.51188 1.86215 0.01113 0.0127 Uiso
Zr21 Zr 0.48887 1.98812 0.86215 0.0127 Uiso
Zr22 Zr 0.01113 1.98812 0.63785 0.0127 Uiso
Zr23 Zr 0.48887 1.51188 0.63785 0.0127 Uiso
Zr24 Zr 0.01113 1.51188 0.86215 0.0127 Uiso
O1 O 0.20900 1.40850 0.00800 0.0127 Uiso
O3 O 0.29100 1.40850 0.49200 0.0127 Uiso
O5 O 0.00800 1.20900 0.40850 0.0127 Uiso
O6 O 0.00800 1.29100 0.09150 0.0127 Uiso
O7 O 0.49200 1.29100 0.40850 0.0127 Uiso
O8 O 0.49200 1.20900 0.09150 0.0127 Uiso
O9 O 0.40850 1.00800 0.20900 0.0127 Uiso
O10 O 0.09150 1.00800 0.29100 0.0127 Uiso
O11 O 0.40850 1.49200 0.29100 0.0127 Uiso
O12 O 0.09150 1.49200 0.20900 0.0127 Uiso
O13 O 0.79100 1.59150 0.99200 0.0127 Uiso
O14 O 0.70900 1.90850 0.99200 0.0127 Uiso
O15 O 0.70900 1.59150 0.50800 0.0127 Uiso
O16 O 0.79100 1.90850 0.50800 0.0127 Uiso
O17 O 0.99200 1.79100 0.59150 0.0127 Uiso
O18 O 0.99200 1.70900 0.90850 0.0127 Uiso
O19 O 0.50800 1.70900 0.59150 0.0127 Uiso
O20 O 0.50800 1.79100 0.90850 0.0127 Uiso
O21 O 0.59150 1.99200 0.79100 0.0127 Uiso
O22 O 0.90850 1.99200 0.70900 0.0127 Uiso
O23 O 0.59150 1.50800 0.70900 0.0127 Uiso
O24 O 0.90850 1.50800 0.79100 0.0127 Uiso
O25 O 0.19040 1.62460 0.02460 0.0127 Uiso
O26 O 0.30960 1.87540 0.02460 0.0127 Uiso
O27 O 0.30960 1.62460 0.47540 0.0127 Uiso
O28 O 0.19040 1.87540 0.47540 0.0127 Uiso
O29 O 0.02460 1.19040 0.62460 0.0127 Uiso
O30 O 0.02460 1.30960 0.87540 0.0127 Uiso
O31 O 0.47540 1.30960 0.62460 0.0127 Uiso
O32 O 0.47540 1.19040 0.87540 0.0127 Uiso
O33 O 0.62460 1.02460 0.19040 0.0127 Uiso
O34 O 0.87540 1.02460 0.30960 0.0127 Uiso
O35 O 0.62460 1.47540 0.30960 0.0127 Uiso
O36 O 0.87540 1.47540 0.19040 0.0127 Uiso
O37 O 0.80960 1.37540 0.97540 0.0127 Uiso
O38 O 0.69040 1.12460 0.97540 0.0127 Uiso
O39 O 0.69040 1.37540 0.52460 0.0127 Uiso
O40 O 0.80960 1.12460 0.52460 0.0127 Uiso
O41 O 0.97540 1.80960 0.37540 0.0127 Uiso
O42 O 0.97540 1.69040 0.12460 0.0127 Uiso
O43 O 0.52460 1.69040 0.37540 0.0127 Uiso
O44 O 0.52460 1.80960 0.12460 0.0127 Uiso
O45 O 0.37540 1.97540 0.80960 0.0127 Uiso
O46 O 0.12460 1.97540 0.69040 0.0127 Uiso
O47 O 0.37540 1.52460 0.69040 0.0127 Uiso
O48 O 0.12460 1.52460 0.80960 0.0127 Uiso
O49 O 0.18960 1.50730 0.12630 0.0127 Uiso
O51 O 0.31040 1.50730 0.37370 0.0127 Uiso
O53 O 0.12630 1.18960 0.50730 0.0127 Uiso
O54 O 0.12630 1.31040 -0.00730 0.0127 Uiso
O55 O 0.37370 1.31040 0.50730 0.0127 Uiso
O56 O 0.37370 1.18960 -0.00730 0.0127 Uiso
O57 O 0.50730 1.12630 0.18960 0.0127 Uiso
O58 O -0.00730 1.12630 0.31040 0.0127 Uiso
O59 O 0.50730 1.37370 0.31040 0.0127 Uiso
O60 O -0.00730 1.37370 0.18960 0.0127 Uiso
O61 O 0.81040 1.49270 0.87370 0.0127 Uiso
O62 O 0.68960 2.00730 0.87370 0.0127 Uiso
O63 O 0.68960 1.49270 0.62630 0.0127 Uiso
O64 O 0.81040 2.00730 0.62630 0.0127 Uiso
O65 O 0.87370 1.81040 0.49270 0.0127 Uiso
O66 O 0.87370 1.68960 1.00730 0.0127 Uiso
O67 O 0.62630 1.68960 0.49270 0.0127 Uiso
O68 O 0.62630 1.81040 1.00730 0.0127 Uiso
O69 O 0.49270 1.87370 0.81040 0.0127 Uiso
O70 O 1.00730 1.87370 0.68960 0.0127 Uiso
O71 O 0.49270 1.62630 0.68960 0.0127 Uiso
O72 O 1.00730 1.62630 0.81040 0.0127 Uiso
O73 O 0.20880 1.52390 0.90940 0.0127 Uiso
O74 O 0.29120 1.97610 0.90940 0.0127 Uiso
O75 O 0.29120 1.52390 0.59060 0.0127 Uiso
O76 O 0.20880 1.97610 0.59060 0.0127 Uiso
O77 O 0.90940 1.20880 0.52390 0.0127 Uiso
O78 O 0.90940 1.29120 0.97610 0.0127 Uiso
O79 O 0.59060 1.29120 0.52390 0.0127 Uiso
O80 O 0.59060 1.20880 0.97610 0.0127 Uiso
O81 O 0.52390 1.90940 0.20880 0.0127 Uiso
O82 O 0.97610 1.90940 0.29120 0.0127 Uiso
O83 O 0.52390 1.59060 0.29120 0.0127 Uiso
O84 O 0.97610 1.59060 0.20880 0.0127 Uiso
O85 O 0.79120 1.47610 0.09060 0.0127 Uiso
O86 O 0.70880 1.02390 0.09060 0.0127 Uiso
O87 O 0.70880 1.47610 0.40940 0.0127 Uiso
O88 O 0.79120 1.02390 0.40940 0.0127 Uiso
O89 O 0.09060 1.79120 0.47610 0.0127 Uiso
O90 O 0.09060 1.70880 0.02390 0.0127 Uiso
O91 O 0.40940 1.70880 0.47610 0.0127 Uiso
O92 O 0.40940 1.79120 0.02390 0.0127 Uiso
O95 O 0.47610 1.40940 0.70880 0.0127 Uiso
O96 O 0.02390 1.40940 0.79120 0.0127 Uiso
C1 C 0.16040 1.68910 0.02400 0.0127 Uiso
C2 C 0.33960 1.81090 0.02400 0.0127 Uiso
C3 C 0.33960 1.68910 0.47600 0.0127 Uiso
C4 C 0.16040 1.81090 0.47600 0.0127 Uiso
C5 C 0.02400 1.16040 0.68910 0.0127 Uiso
C6 C 0.02400 1.33960 0.81090 0.0127 Uiso
C7 C 0.47600 1.33960 0.68910 0.0127 Uiso
C8 C 0.47600 1.16040 0.81090 0.0127 Uiso
C9 C 0.68910 1.02400 0.16040 0.0127 Uiso
C10 C 0.81090 1.02400 0.33960 0.0127 Uiso
C11 C 0.68910 1.47600 0.33960 0.0127 Uiso
C12 C 0.81090 1.47600 0.16040 0.0127 Uiso
C13 C 0.83960 1.31090 0.97600 0.0127 Uiso
C14 C 0.66040 1.18910 0.97600 0.0127 Uiso
C15 C 0.66040 1.31090 0.52400 0.0127 Uiso
C16 C 0.83960 1.18910 0.52400 0.0127 Uiso
C17 C 0.97600 1.83960 0.31090 0.0127 Uiso
C18 C 0.97600 1.66040 0.18910 0.0127 Uiso
C19 C 0.52400 1.66040 0.31090 0.0127 Uiso
C20 C 0.52400 1.83960 0.18910 0.0127 Uiso
C21 C 0.31090 1.97600 0.83960 0.0127 Uiso
C22 C 0.18910 1.97600 0.66040 0.0127 Uiso
C23 C 0.31090 1.52400 0.66040 0.0127 Uiso
C24 C 0.18910 1.52400 0.83960 0.0127 Uiso
C25 C 0.21420 1.75550 0.02430 0.0127 Uiso
C26 C 0.28580 1.74450 0.02430 0.0127 Uiso
C27 C 0.28580 1.75550 0.47570 0.0127 Uiso
C28 C 0.21420 1.74450 0.47570 0.0127 Uiso
C29 C 0.02430 1.21420 0.75550 0.0127 Uiso
C30 C 0.02430 1.28580 0.74450 0.0127 Uiso
C31 C 0.47570 1.28580 0.75550 0.0127 Uiso
C32 C 0.47570 1.21420 0.74450 0.0127 Uiso
C33 C 0.75550 1.02430 0.21420 0.0127 Uiso
C34 C 0.74450 1.02430 0.28580 0.0127 Uiso
C35 C 0.75550 1.47570 0.28580 0.0127 Uiso
C36 C 0.74450 1.47570 0.21420 0.0127 Uiso
C37 C 0.78580 1.24450 0.97570 0.0127 Uiso
C38 C 0.71420 1.25550 0.97570 0.0127 Uiso
C39 C 0.71420 1.24450 0.52430 0.0127 Uiso
C40 C 0.78580 1.25550 0.52430 0.0127 Uiso
C41 C 0.97570 1.78580 0.24450 0.0127 Uiso
C42 C 0.97570 1.71420 0.25550 0.0127 Uiso
C43 C 0.52430 1.71420 0.24450 0.0127 Uiso
C44 C 0.52430 1.78580 0.25550 0.0127 Uiso
C45 C 0.24450 1.97570 0.78580 0.0127 Uiso
C46 C 0.25550 1.97570 0.71420 0.0127 Uiso
C47 C 0.24450 1.52430 0.71420 0.0127 Uiso
C48 C 0.25550 1.52430 0.78580 0.0127 Uiso
H1 H 0.19550 1.80420 0.02440 0.0127 Uiso
H2 H 0.30450 1.69580 0.02440 0.0127 Uiso
H3 H 0.30450 1.80420 0.47560 0.0127 Uiso
H4 H 0.19550 1.69580 0.47560 0.0127 Uiso
H5 H 0.02440 1.19550 0.80420 0.0127 Uiso
H6 H 0.02440 1.30450 0.69580 0.0127 Uiso
H7 H 0.47560 1.30450 0.80420 0.0127 Uiso
H8 H 0.47560 1.19550 0.69580 0.0127 Uiso
H9 H 0.80420 1.02440 0.19550 0.0127 Uiso
H10 H 0.69580 1.02440 0.30450 0.0127 Uiso
H11 H 0.80420 1.47560 0.30450 0.0127 Uiso
H12 H 0.69580 1.47560 0.19550 0.0127 Uiso
H13 H 0.80450 1.19580 0.97560 0.0127 Uiso
H14 H 0.69550 1.30420 0.97560 0.0127 Uiso
H15 H 0.69550 1.19580 0.52440 0.0127 Uiso
H16 H 0.80450 1.30420 0.52440 0.0127 Uiso
H17 H 0.97560 1.80450 0.19580 0.0127 Uiso
H18 H 0.97560 1.69550 0.30420 0.0127 Uiso
H19 H 0.52440 1.69550 0.19580 0.0127 Uiso
H20 H 0.52440 1.80450 0.30420 0.0127 Uiso
H21 H 0.19580 1.97560 0.80450 0.0127 Uiso
H22 H 0.30420 1.97560 0.69550 0.0127 Uiso
H23 H 0.19580 1.52440 0.69550 0.0127 Uiso
H24 H 0.30420 1.52440 0.80450 0.0127 Uiso
C49 C 0.19060 1.33980 0.00000 0.0127 Uiso
C50 C 0.30940 1.16020 0.00000 0.0127 Uiso
C51 C 0.30940 1.33980 0.50000 0.0127 Uiso
C52 C 0.19060 1.16020 0.50000 0.0127 Uiso
C53 C 0.00000 1.19060 0.33980 0.0127 Uiso
C54 C 0.00000 1.30940 0.16020 0.0127 Uiso
C55 C 0.50000 1.30940 0.33980 0.0127 Uiso
C56 C 0.50000 1.19060 0.16020 0.0127 Uiso
C57 C 0.33980 1.00000 0.19060 0.0127 Uiso
C58 C 0.16020 1.00000 0.30940 0.0127 Uiso
C59 C 0.33980 1.50000 0.30940 0.0127 Uiso
C60 C 0.16020 1.50000 0.19060 0.0127 Uiso
C61 C 0.80940 1.66020 1.00000 0.0127 Uiso
C62 C 0.69060 1.83980 1.00000 0.0127 Uiso
C63 C 0.69060 1.66020 0.50000 0.0127 Uiso
C64 C 0.80940 1.83980 0.50000 0.0127 Uiso
C65 C 1.00000 1.80940 0.66020 0.0127 Uiso
C66 C 1.00000 1.69060 0.83980 0.0127 Uiso
C67 C 0.50000 1.69060 0.66020 0.0127 Uiso
C68 C 0.50000 1.80940 0.83980 0.0127 Uiso
C69 C 0.66020 2.00000 0.80940 0.0127 Uiso
C70 C 0.83980 2.00000 0.69060 0.0127 Uiso
C71 C 0.66020 1.50000 0.69060 0.0127 Uiso
C72 C 0.83980 1.50000 0.80940 0.0127 Uiso
C73 C 0.25670 1.28650 0.00010 0.0127 Uiso
C74 C 0.24330 1.21350 0.00010 0.0127 Uiso
C75 C 0.24330 1.28650 0.49990 0.0127 Uiso
C76 C 0.25670 1.21350 0.49990 0.0127 Uiso
C77 C 0.00010 1.25670 0.28650 0.0127 Uiso
C78 C 0.00010 1.24330 0.21350 0.0127 Uiso
C79 C 0.49990 1.24330 0.28650 0.0127 Uiso
C80 C 0.49990 1.25670 0.21350 0.0127 Uiso
C81 C 0.28650 1.00010 0.25670 0.0127 Uiso
C82 C 0.21350 1.00010 0.24330 0.0127 Uiso
C83 C 0.28650 1.49990 0.24330 0.0127 Uiso
C84 C 0.21350 1.49990 0.25670 0.0127 Uiso
C85 C 0.74330 1.71350 0.99990 0.0127 Uiso
C86 C 0.75670 1.78650 0.99990 0.0127 Uiso
C87 C 0.75670 1.71350 0.50010 0.0127 Uiso
C88 C 0.74330 1.78650 0.50010 0.0127 Uiso
C89 C 0.99990 1.74330 0.71350 0.0127 Uiso
C90 C 0.99990 1.75670 0.78650 0.0127 Uiso
C91 C 0.50010 1.75670 0.71350 0.0127 Uiso
C92 C 0.50010 1.74330 0.78650 0.0127 Uiso
C93 C 0.71350 1.99990 0.74330 0.0127 Uiso
C94 C 0.78650 1.99990 0.75670 0.0127 Uiso
C95 C 0.71350 1.50010 0.75670 0.0127 Uiso
C96 C 0.78650 1.50010 0.74330 0.0127 Uiso
H25 H 0.30560 1.30460 0.00010 0.0127 Uiso
H26 H 0.19440 1.19540 0.00010 0.0127 Uiso
H27 H 0.19440 1.30460 0.49990 0.0127 Uiso
H28 H 0.30560 1.19540 0.49990 0.0127 Uiso
H29 H 0.00010 1.30560 0.30460 0.0127 Uiso
H30 H 0.00010 1.19440 0.19540 0.0127 Uiso
H31 H 0.49990 1.19440 0.30460 0.0127 Uiso
H32 H 0.49990 1.30560 0.19540 0.0127 Uiso
H33 H 0.30460 1.00010 0.30560 0.0127 Uiso
H34 H 0.19540 1.00010 0.19440 0.0127 Uiso
H35 H 0.30460 1.49990 0.19440 0.0127 Uiso
H36 H 0.19540 1.49990 0.30560 0.0127 Uiso
H37 H 0.69440 1.69540 0.99990 0.0127 Uiso
H38 H 0.80560 1.80460 0.99990 0.0127 Uiso
H39 H 0.80560 1.69540 0.50010 0.0127 Uiso
H40 H 0.69440 1.80460 0.50010 0.0127 Uiso
H41 H 0.99990 1.69440 0.69540 0.0127 Uiso
H42 H 0.99990 1.80560 0.80460 0.0127 Uiso
H43 H 0.50010 1.80560 0.69540 0.0127 Uiso
H44 H 0.50010 1.69440 0.80460 0.0127 Uiso
H45 H 0.69540 1.99990 0.69440 0.0127 Uiso
H46 H 0.80460 1.99990 0.80560 0.0127 Uiso
H47 H 0.69540 1.50010 0.80560 0.0127 Uiso
H48 H 0.80460 1.50010 0.69440 0.0127 Uiso
O97 O 0.07650 1.59170 0.93530 0.0127 Uiso
O98 O 0.42350 1.90830 0.93530 0.0127 Uiso
O99 O 0.42350 1.59170 0.56470 0.0127 Uiso
O100 O 0.07650 1.90830 0.56470 0.0127 Uiso
O101 O 0.93530 1.07650 0.59170 0.0127 Uiso
O102 O 0.93530 1.42350 0.90830 0.0127 Uiso
O103 O 0.56470 1.42350 0.59170 0.0127 Uiso
O105 O 0.59170 1.93530 0.07650 0.0127 Uiso
O106 O 0.90830 1.93530 0.42350 0.0127 Uiso
O107 O 0.59170 1.56470 0.42350 0.0127 Uiso
O108 O 0.90830 1.56470 0.07650 0.0127 Uiso
O109 O 0.92350 1.40830 0.06470 0.0127 Uiso
O110 O 0.57650 1.09170 0.06470 0.0127 Uiso
O111 O 0.57650 1.40830 0.43530 0.0127 Uiso
O112 O 0.92350 1.09170 0.43530 0.0127 Uiso
O113 O 0.06470 1.92350 0.40830 0.0127 Uiso
O114 O 0.06470 1.57650 0.09170 0.0127 Uiso
O115 O 0.43530 1.57650 0.40830 0.0127 Uiso
O116 O 0.43530 1.92350 0.09170 0.0127 Uiso
O119 O 0.40830 1.43530 0.57650 0.0127 Uiso
O153 O 0.07850 1.42150 0.07850 0.0127 Uiso
O155 O 0.42150 1.42150 0.42150 0.0127 Uiso
O157 O 0.92150 1.57850 0.92150 0.0127 Uiso
O158 O 0.57850 1.92150 0.92150 0.0127 Uiso
O159 O 0.57850 1.57850 0.57850 0.0127 Uiso
O160 O 0.92150 1.92150 0.57850 0.0127 Uiso
Zr1 Zr 0.13785 1.51113 1.01188 0.0127 Uiso
Zr1 Zr 1.13785 1.51113 0.01188 0.0127 Uiso
Zr2 Zr 0.36215 1.98887 1.01188 0.0127 Uiso
Zr4 Zr 1.13785 1.98887 0.48812 0.0127 Uiso
Zr5 Zr 0.01188 2.13785 0.51113 0.0127 Uiso
Zr5 Zr 1.01188 1.13785 0.51113 0.0127 Uiso
Zr6 Zr 0.01188 1.36215 -0.01113 0.0127 Uiso
Zr6 Zr 1.01188 1.36215 -0.01113 0.0127 Uiso
Zr6 Zr 1.01188 1.36215 0.98887 0.0127 Uiso
Zr8 Zr 0.48812 2.13785 -0.01113 0.0127 Uiso
Zr8 Zr 0.48812 2.13785 0.98887 0.0127 Uiso
Zr9 Zr 0.51113 2.01188 0.13785 0.0127 Uiso
Zr10 Zr -0.01113 2.01188 0.36215 0.0127 Uiso
Zr10 Zr 0.98887 2.01188 0.36215 0.0127 Uiso
Zr12 Zr -0.01113 1.48812 0.13785 0.0127 Uiso
Zr12 Zr -0.01113 1.48812 1.13785 0.0127 Uiso
Zr12 Zr 0.98887 1.48812 1.13785 0.0127 Uiso
Zr13 Zr -0.13785 1.48887 0.98812 0.0127 Uiso
Zr13 Zr 0.86215 1.48887 -0.01188 0.0127 Uiso
Zr14 Zr 0.63785 2.01113 -0.01188 0.0127 Uiso
Zr14 Zr 0.63785 2.01113 0.98812 0.0127 Uiso
Zr16 Zr -0.13785 2.01113 0.51188 0.0127 Uiso
Zr16 Zr 0.86215 2.01113 0.51188 0.0127 Uiso
Zr17 Zr -0.01188 1.86215 0.48887 0.0127 Uiso
Zr18 Zr -0.01188 1.63785 0.01113 0.0127 Uiso
Zr18 Zr -0.01188 1.63785 1.01113 0.0127 Uiso
Zr18 Zr 0.98812 1.63785 1.01113 0.0127 Uiso
Zr20 Zr 0.51188 1.86215 1.01113 0.0127 Uiso
Zr21 Zr 0.48887 1.98812 -0.13785 0.0127 Uiso
Zr22 Zr 1.01113 1.98812 0.63785 0.0127 Uiso
Zr24 Zr 0.01113 1.51188 -0.13785 0.0127 Uiso
Zr24 Zr 1.01113 1.51188 -0.13785 0.0127 Uiso
Zr24 Zr 1.01113 1.51188 0.86215 0.0127 Uiso
O2 O 0.29100 2.09150 0.00800 0.0127 Uiso
O4 O 0.20900 2.09150 0.49200 0.0127 Uiso
O6 O 0.00800 1.29100 1.09150 0.0127 Uiso
O8 O 0.49200 1.20900 1.09150 0.0127 Uiso
O10 O 1.09150 1.00800 0.29100 0.0127 Uiso
O12 O 1.09150 1.49200 0.20900 0.0127 Uiso
O18 O 0.99200 1.70900 -0.09150 0.0127 Uiso
O20 O 0.50800 1.79100 -0.09150 0.0127 Uiso
O22 O -0.09150 1.99200 0.70900 0.0127 Uiso
O24 O -0.09150 1.50800 0.79100 0.0127 Uiso
O50 O 0.31040 1.99270 0.12630 0.0127 Uiso
O52 O 0.18960 1.99270 0.37370 0.0127 Uiso
O54 O 0.12630 1.31040 0.99270 0.0127 Uiso
O56 O 0.37370 1.18960 0.99270 0.0127 Uiso
O58 O 0.99270 1.12630 0.31040 0.0127 Uiso
O60 O 0.99270 1.37370 0.18960 0.0127 Uiso
O66 O 0.87370 1.68960 0.00730 0.0127 Uiso
O68 O 0.62630 1.81040 0.00730 0.0127 Uiso
O70 O 0.00730 1.87370 0.68960 0.0127 Uiso
O72 O 0.00730 1.62630 0.81040 0.0127 Uiso
O73 O 0.20880 1.52390 -0.09060 0.0127 Uiso
O74 O 0.29120 1.97610 -0.09060 0.0127 Uiso
O77 O -0.09060 1.20880 0.52390 0.0127 Uiso
O78 O -0.09060 1.29120 0.97610 0.0127 Uiso
O85 O 0.79120 1.47610 1.09060 0.0127 Uiso
O86 O 0.70880 1.02390 1.09060 0.0127 Uiso
O89 O 1.09060 1.79120 0.47610 0.0127 Uiso
O90 O 1.09060 1.70880 0.02390 0.0127 Uiso
O93 O 0.47610 2.09060 0.79120 0.0127 Uiso
O94 O 0.02390 2.09060 0.70880 0.0127 Uiso
O97 O 0.07650 1.59170 -0.06470 0.0127 Uiso
O97 O 1.07650 1.59170 -0.06470 0.0127 Uiso
O98 O 0.42350 1.90830 -0.06470 0.0127 Uiso
O100 O 1.07650 1.90830 0.56470 0.0127 Uiso
O101 O -0.06470 2.07650 0.59170 0.0127 Uiso
O102 O -0.06470 1.42350 0.90830 0.0127 Uiso
O104 O 0.56470 2.07650 0.90830 0.0127 Uiso
O108 O 0.90830 1.56470 1.07650 0.0127 Uiso
O109 O -0.07650 1.40830 1.06470 0.0127 Uiso
O109 O 0.92350 1.40830 1.06470 0.0127 Uiso
O110 O 0.57650 1.09170 1.06470 0.0127 Uiso
O112 O -0.07650 1.09170 0.43530 0.0127 Uiso
O113 O 1.06470 1.92350 0.40830 0.0127 Uiso
O114 O 1.06470 1.57650 0.09170 0.0127 Uiso
O117 O 0.40830 2.06470 -0.07650 0.0127 Uiso
O117 O 0.40830 2.06470 0.92350 0.0127 Uiso
O118 O 0.09170 2.06470 0.57650 0.0127 Uiso
O120 O 0.09170 1.43530 -0.07650 0.0127 Uiso
O153 O 0.07850 1.42150 1.07850 0.0127 Uiso
O153 O 1.07850 1.42150 0.07850 0.0127 Uiso
O154 O 0.42150 2.07850 0.07850 0.0127 Uiso
O156 O 0.07850 2.07850 0.42150 0.0127 Uiso
O156 O 1.07850 1.07850 0.42150 0.0127 Uiso
O157 O -0.07850 1.57850 0.92150 0.0127 Uiso
O157 O 0.92150 1.57850 -0.07850 0.0127 Uiso
O158 O 0.57850 1.92150 -0.07850 0.0127 Uiso
O160 O -0.07850 1.92150 0.57850 0.0127 Uiso
Zr3 Zr 0.36215 1.51113 1.48812 0.0127 Uiso
Zr4 Zr 0.13785 1.98887 1.48812 0.0127 Uiso
Zr6 Zr 0.01188 1.36215 1.98887 0.0127 Uiso
Zr7 Zr 0.48812 1.36215 1.51113 0.0127 Uiso
Zr11 Zr 0.51113 1.48812 1.36215 0.0127 Uiso
Zr13 Zr 0.86215 1.48887 1.98812 0.0127 Uiso
Zr15 Zr 0.63785 1.48887 1.51188 0.0127 Uiso
Zr17 Zr 0.98812 1.86215 1.48887 0.0127 Uiso
Zr19 Zr 0.51188 1.63785 1.48887 0.0127 Uiso
Zr21 Zr 0.48887 1.98812 1.86215 0.0127 Uiso
Zr22 Zr 0.01113 1.98812 1.63785 0.0127 Uiso
Zr23 Zr 0.48887 1.51188 1.63785 0.0127 Uiso
Zr24 Zr 0.01113 1.51188 1.86215 0.0127 Uiso
O1 O 0.20900 1.40850 1.00800 0.0127 Uiso
O3 O 0.29100 1.40850 1.49200 0.0127 Uiso
O5 O 0.00800 1.20900 1.40850 0.0127 Uiso
O7 O 0.49200 1.29100 1.40850 0.0127 Uiso
O9 O 0.40850 1.00800 1.20900 0.0127 Uiso
O10 O 0.09150 1.00800 1.29100 0.0127 Uiso
O11 O 0.40850 1.49200 1.29100 0.0127 Uiso
O12 O 0.09150 1.49200 1.20900 0.0127 Uiso
O13 O 0.79100 1.59150 1.99200 0.0127 Uiso
O14 O 0.70900 1.90850 1.99200 0.0127 Uiso
O15 O 0.70900 1.59150 1.50800 0.0127 Uiso
O16 O 0.79100 1.90850 1.50800 0.0127 Uiso
O17 O 0.99200 1.79100 1.59150 0.0127 Uiso
O18 O 0.99200 1.70900 1.90850 0.0127 Uiso
O19 O 0.50800 1.70900 1.59150 0.0127 Uiso
O20 O 0.50800 1.79100 1.90850 0.0127 Uiso
O21 O 0.59150 1.99200 1.79100 0.0127 Uiso
O22 O 0.90850 1.99200 1.70900 0.0127 Uiso
O23 O 0.59150 1.50800 1.70900 0.0127 Uiso
O24 O 0.90850 1.50800 1.79100 0.0127 Uiso
O25 O 0.19040 1.62460 1.02460 0.0127 Uiso
O26 O 0.30960 1.87540 1.02460 0.0127 Uiso
O27 O 0.30960 1.62460 1.47540 0.0127 Uiso
O28 O 0.19040 1.87540 1.47540 0.0127 Uiso
O29 O 0.02460 1.19040 1.62460 0.0127 Uiso
O30 O 0.02460 1.30960 1.87540 0.0127 Uiso
O31 O 0.47540 1.30960 1.62460 0.0127 Uiso
O32 O 0.47540 1.19040 1.87540 0.0127 Uiso
O33 O 0.62460 1.02460 1.19040 0.0127 Uiso
O34 O 0.87540 1.02460 1.30960 0.0127 Uiso
O35 O 0.62460 1.47540 1.30960 0.0127 Uiso
O36 O 0.87540 1.47540 1.19040 0.0127 Uiso
O37 O 0.80960 1.37540 1.97540 0.0127 Uiso
O38 O 0.69040 1.12460 1.97540 0.0127 Uiso
O39 O 0.69040 1.37540 1.52460 0.0127 Uiso
O40 O 0.80960 1.12460 1.52460 0.0127 Uiso
O41 O 0.97540 1.80960 1.37540 0.0127 Uiso
O42 O 0.97540 1.69040 1.12460 0.0127 Uiso
O43 O 0.52460 1.69040 1.37540 0.0127 Uiso
O44 O 0.52460 1.80960 1.12460 0.0127 Uiso
O45 O 0.37540 1.97540 1.80960 0.0127 Uiso
O46 O 0.12460 1.97540 1.69040 0.0127 Uiso
O47 O 0.37540 1.52460 1.69040 0.0127 Uiso
O48 O 0.12460 1.52460 1.80960 0.0127 Uiso
O49 O 0.18960 1.50730 1.12630 0.0127 Uiso
O51 O 0.31040 1.50730 1.37370 0.0127 Uiso
O53 O 0.12630 1.18960 1.50730 0.0127 Uiso
O55 O 0.37370 1.31040 1.50730 0.0127 Uiso
O57 O 0.50730 1.12630 1.18960 0.0127 Uiso
O58 O -0.00730 1.12630 1.31040 0.0127 Uiso
O59 O 0.50730 1.37370 1.31040 0.0127 Uiso
O60 O -0.00730 1.37370 1.18960 0.0127 Uiso
O61 O 0.81040 1.49270 1.87370 0.0127 Uiso
O62 O 0.68960 2.00730 1.87370 0.0127 Uiso
O63 O 0.68960 1.49270 1.62630 0.0127 Uiso
O64 O 0.81040 2.00730 1.62630 0.0127 Uiso
O65 O 0.87370 1.81040 1.49270 0.0127 Uiso
O66 O 0.87370 1.68960 2.00730 0.0127 Uiso
O67 O 0.62630 1.68960 1.49270 0.0127 Uiso
O68 O 0.62630 1.81040 2.00730 0.0127 Uiso
O69 O 0.49270 1.87370 1.81040 0.0127 Uiso
O70 O 1.00730 1.87370 1.68960 0.0127 Uiso
O71 O 0.49270 1.62630 1.68960 0.0127 Uiso
O72 O 1.00730 1.62630 1.81040 0.0127 Uiso
O73 O 0.20880 1.52390 1.90940 0.0127 Uiso
O74 O 0.29120 1.97610 1.90940 0.0127 Uiso
O75 O 0.29120 1.52390 1.59060 0.0127 Uiso
O76 O 0.20880 1.97610 1.59060 0.0127 Uiso
O77 O 0.90940 1.20880 1.52390 0.0127 Uiso
O78 O 0.90940 1.29120 1.97610 0.0127 Uiso
O79 O 0.59060 1.29120 1.52390 0.0127 Uiso
O80 O 0.59060 1.20880 1.97610 0.0127 Uiso
O81 O 0.52390 1.90940 1.20880 0.0127 Uiso
O82 O 0.97610 1.90940 1.29120 0.0127 Uiso
O83 O 0.52390 1.59060 1.29120 0.0127 Uiso
O84 O 0.97610 1.59060 1.20880 0.0127 Uiso
O87 O 0.70880 1.47610 1.40940 0.0127 Uiso
O88 O 0.79120 1.02390 1.40940 0.0127 Uiso
O89 O 0.09060 1.79120 1.47610 0.0127 Uiso
O90 O 0.09060 1.70880 1.02390 0.0127 Uiso
O91 O 0.40940 1.70880 1.47610 0.0127 Uiso
O92 O 0.40940 1.79120 1.02390 0.0127 Uiso
O95 O 0.47610 1.40940 1.70880 0.0127 Uiso
O96 O 0.02390 1.40940 1.79120 0.0127 Uiso
C1 C 0.16040 1.68910 1.02400 0.0127 Uiso
C2 C 0.33960 1.81090 1.02400 0.0127 Uiso
C3 C 0.33960 1.68910 1.47600 0.0127 Uiso
C4 C 0.16040 1.81090 1.47600 0.0127 Uiso
C5 C 0.02400 1.16040 1.68910 0.0127 Uiso
C6 C 0.02400 1.33960 1.81090 0.0127 Uiso
C7 C 0.47600 1.33960 1.68910 0.0127 Uiso
C8 C 0.47600 1.16040 1.81090 0.0127 Uiso
C9 C 0.68910 1.02400 1.16040 0.0127 Uiso
C10 C 0.81090 1.02400 1.33960 0.0127 Uiso
C11 C 0.68910 1.47600 1.33960 0.0127 Uiso
C12 C 0.81090 1.47600 1.16040 0.0127 Uiso
C13 C 0.83960 1.31090 1.97600 0.0127 Uiso
C14 C 0.66040 1.18910 1.97600 0.0127 Uiso
C15 C 0.66040 1.31090 1.52400 0.0127 Uiso
C16 C 0.83960 1.18910 1.52400 0.0127 Uiso
C17 C 0.97600 1.83960 1.31090 0.0127 Uiso
C18 C 0.97600 1.66040 1.18910 0.0127 Uiso
C19 C 0.52400 1.66040 1.31090 0.0127 Uiso
C20 C 0.52400 1.83960 1.18910 0.0127 Uiso
C21 C 0.31090 1.97600 1.83960 0.0127 Uiso
C22 C 0.18910 1.97600 1.66040 0.0127 Uiso
C23 C 0.31090 1.52400 1.66040 0.0127 Uiso
C24 C 0.18910 1.52400 1.83960 0.0127 Uiso
C25 C 0.21420 1.75550 1.02430 0.0127 Uiso
C26 C 0.28580 1.74450 1.02430 0.0127 Uiso
C27 C 0.28580 1.75550 1.47570 0.0127 Uiso
C28 C 0.21420 1.74450 1.47570 0.0127 Uiso
C29 C 0.02430 1.21420 1.75550 0.0127 Uiso
C30 C 0.02430 1.28580 1.74450 0.0127 Uiso
C31 C 0.47570 1.28580 1.75550 0.0127 Uiso
C32 C 0.47570 1.21420 1.74450 0.0127 Uiso
C33 C 0.75550 1.02430 1.21420 0.0127 Uiso
C34 C 0.74450 1.02430 1.28580 0.0127 Uiso
C35 C 0.75550 1.47570 1.28580 0.0127 Uiso
C36 C 0.74450 1.47570 1.21420 0.0127 Uiso
C37 C 0.78580 1.24450 1.97570 0.0127 Uiso
C38 C 0.71420 1.25550 1.97570 0.0127 Uiso
C39 C 0.71420 1.24450 1.52430 0.0127 Uiso
C40 C 0.78580 1.25550 1.52430 0.0127 Uiso
C41 C 0.97570 1.78580 1.24450 0.0127 Uiso
C42 C 0.97570 1.71420 1.25550 0.0127 Uiso
C43 C 0.52430 1.71420 1.24450 0.0127 Uiso
C44 C 0.52430 1.78580 1.25550 0.0127 Uiso
C45 C 0.24450 1.97570 1.78580 0.0127 Uiso
C46 C 0.25550 1.97570 1.71420 0.0127 Uiso
C47 C 0.24450 1.52430 1.71420 0.0127 Uiso
C48 C 0.25550 1.52430 1.78580 0.0127 Uiso
H1 H 0.19550 1.80420 1.02440 0.0127 Uiso
H2 H 0.30450 1.69580 1.02440 0.0127 Uiso
H3 H 0.30450 1.80420 1.47560 0.0127 Uiso
H4 H 0.19550 1.69580 1.47560 0.0127 Uiso
H5 H 0.02440 1.19550 1.80420 0.0127 Uiso
H6 H 0.02440 1.30450 1.69580 0.0127 Uiso
H7 H 0.47560 1.30450 1.80420 0.0127 Uiso
H8 H 0.47560 1.19550 1.69580 0.0127 Uiso
H9 H 0.80420 1.02440 1.19550 0.0127 Uiso
H10 H 0.69580 1.02440 1.30450 0.0127 Uiso
H11 H 0.80420 1.47560 1.30450 0.0127 Uiso
H12 H 0.69580 1.47560 1.19550 0.0127 Uiso
H13 H 0.80450 1.19580 1.97560 0.0127 Uiso
H14 H 0.69550 1.30420 1.97560 0.0127 Uiso
H15 H 0.69550 1.19580 1.52440 0.0127 Uiso
H16 H 0.80450 1.30420 1.52440 0.0127 Uiso
H17 H 0.97560 1.80450 1.19580 0.0127 Uiso
H18 H 0.97560 1.69550 1.30420 0.0127 Uiso
H19 H 0.52440 1.69550 1.19580 0.0127 Uiso
H20 H 0.52440 1.80450 1.30420 0.0127 Uiso
H21 H 0.19580 1.97560 1.80450 0.0127 Uiso
H22 H 0.30420 1.97560 1.69550 0.0127 Uiso
H23 H 0.19580 1.52440 1.69550 0.0127 Uiso
H24 H 0.30420 1.52440 1.80450 0.0127 Uiso
C49 C 0.19060 1.33980 1.00000 0.0127 Uiso
C50 C 0.30940 1.16020 1.00000 0.0127 Uiso
C51 C 0.30940 1.33980 1.50000 0.0127 Uiso
C52 C 0.19060 1.16020 1.50000 0.0127 Uiso
C53 C 0.00000 1.19060 1.33980 0.0127 Uiso
C54 C 0.00000 1.30940 1.16020 0.0127 Uiso
C55 C 0.50000 1.30940 1.33980 0.0127 Uiso
C56 C 0.50000 1.19060 1.16020 0.0127 Uiso
C57 C 0.33980 1.00000 1.19060 0.0127 Uiso
C58 C 0.16020 1.00000 1.30940 0.0127 Uiso
C59 C 0.33980 1.50000 1.30940 0.0127 Uiso
C60 C 0.16020 1.50000 1.19060 0.0127 Uiso
C61 C 0.80940 1.66020 2.00000 0.0127 Uiso
C62 C 0.69060 1.83980 2.00000 0.0127 Uiso
C63 C 0.69060 1.66020 1.50000 0.0127 Uiso
C64 C 0.80940 1.83980 1.50000 0.0127 Uiso
C65 C 1.00000 1.80940 1.66020 0.0127 Uiso
C66 C 1.00000 1.69060 1.83980 0.0127 Uiso
C67 C 0.50000 1.69060 1.66020 0.0127 Uiso
C68 C 0.50000 1.80940 1.83980 0.0127 Uiso
C69 C 0.66020 2.00000 1.80940 0.0127 Uiso
C70 C 0.83980 2.00000 1.69060 0.0127 Uiso
C71 C 0.66020 1.50000 1.69060 0.0127 Uiso
C72 C 0.83980 1.50000 1.80940 0.0127 Uiso
C73 C 0.25670 1.28650 1.00010 0.0127 Uiso
C74 C 0.24330 1.21350 1.00010 0.0127 Uiso
C75 C 0.24330 1.28650 1.49990 0.0127 Uiso
C76 C 0.25670 1.21350 1.49990 0.0127 Uiso
C77 C 0.00010 1.25670 1.28650 0.0127 Uiso
C78 C 0.00010 1.24330 1.21350 0.0127 Uiso
C79 C 0.49990 1.24330 1.28650 0.0127 Uiso
C80 C 0.49990 1.25670 1.21350 0.0127 Uiso
C81 C 0.28650 1.00010 1.25670 0.0127 Uiso
C82 C 0.21350 1.00010 1.24330 0.0127 Uiso
C83 C 0.28650 1.49990 1.24330 0.0127 Uiso
C84 C 0.21350 1.49990 1.25670 0.0127 Uiso
C85 C 0.74330 1.71350 1.99990 0.0127 Uiso
C86 C 0.75670 1.78650 1.99990 0.0127 Uiso
C87 C 0.75670 1.71350 1.50010 0.0127 Uiso
C88 C 0.74330 1.78650 1.50010 0.0127 Uiso
C89 C 0.99990 1.74330 1.71350 0.0127 Uiso
C90 C 0.99990 1.75670 1.78650 0.0127 Uiso
C91 C 0.50010 1.75670 1.71350 0.0127 Uiso
C92 C 0.50010 1.74330 1.78650 0.0127 Uiso
C93 C 0.71350 1.99990 1.74330 0.0127 Uiso
C94 C 0.78650 1.99990 1.75670 0.0127 Uiso
C95 C 0.71350 1.50010 1.75670 0.0127 Uiso
C96 C 0.78650 1.50010 1.74330 0.0127 Uiso
H25 H 0.30560 1.30460 1.00010 0.0127 Uiso
H26 H 0.19440 1.19540 1.00010 0.0127 Uiso
H27 H 0.19440 1.30460 1.49990 0.0127 Uiso
H28 H 0.30560 1.19540 1.49990 0.0127 Uiso
H29 H 0.00010 1.30560 1.30460 0.0127 Uiso
H30 H 0.00010 1.19440 1.19540 0.0127 Uiso
H31 H 0.49990 1.19440 1.30460 0.0127 Uiso
H32 H 0.49990 1.30560 1.19540 0.0127 Uiso
H33 H 0.30460 1.00010 1.30560 0.0127 Uiso
H34 H 0.19540 1.00010 1.19440 0.0127 Uiso
H35 H 0.30460 1.49990 1.19440 0.0127 Uiso
H36 H 0.19540 1.49990 1.30560 0.0127 Uiso
H37 H 0.69440 1.69540 1.99990 0.0127 Uiso
H38 H 0.80560 1.80460 1.99990 0.0127 Uiso
H39 H 0.80560 1.69540 1.50010 0.0127 Uiso
H40 H 0.69440 1.80460 1.50010 0.0127 Uiso
H41 H 0.99990 1.69440 1.69540 0.0127 Uiso
H42 H 0.99990 1.80560 1.80460 0.0127 Uiso
H43 H 0.50010 1.80560 1.69540 0.0127 Uiso
H44 H 0.50010 1.69440 1.80460 0.0127 Uiso
H45 H 0.69540 1.99990 1.69440 0.0127 Uiso
H46 H 0.80460 1.99990 1.80560 0.0127 Uiso
H47 H 0.69540 1.50010 1.80560 0.0127 Uiso
H48 H 0.80460 1.50010 1.69440 0.0127 Uiso
O97 O 0.07650 1.59170 1.93530 0.0127 Uiso
O98 O 0.42350 1.90830 1.93530 0.0127 Uiso
O99 O 0.42350 1.59170 1.56470 0.0127 Uiso
O100 O 0.07650 1.90830 1.56470 0.0127 Uiso
O101 O 0.93530 1.07650 1.59170 0.0127 Uiso
O102 O 0.93530 1.42350 1.90830 0.0127 Uiso
O103 O 0.56470 1.42350 1.59170 0.0127 Uiso
O105 O 0.59170 1.93530 1.07650 0.0127 Uiso
O106 O 0.90830 1.93530 1.42350 0.0127 Uiso
O107 O 0.59170 1.56470 1.42350 0.0127 Uiso
O111 O 0.57650 1.40830 1.43530 0.0127 Uiso
O112 O 0.92350 1.09170 1.43530 0.0127 Uiso
O113 O 0.06470 1.92350 1.40830 0.0127 Uiso
O114 O 0.06470 1.57650 1.09170 0.0127 Uiso
O115 O 0.43530 1.57650 1.40830 0.0127 Uiso
O116 O 0.43530 1.92350 1.09170 0.0127 Uiso
O119 O 0.40830 1.43530 1.57650 0.0127 Uiso
O155 O 0.42150 1.42150 1.42150 0.0127 Uiso
O157 O 0.92150 1.57850 1.92150 0.0127 Uiso
O158 O 0.57850 1.92150 1.92150 0.0127 Uiso
O159 O 0.57850 1.57850 1.57850 0.0127 Uiso
O160 O 0.92150 1.92150 1.57850 0.0127 Uiso
Zr1 Zr 0.13785 1.51113 2.01188 0.0127 Uiso
Zr1 Zr 1.13785 1.51113 1.01188 0.0127 Uiso
Zr2 Zr 0.36215 1.98887 2.01188 0.0127 Uiso
Zr4 Zr 1.13785 1.98887 1.48812 0.0127 Uiso
Zr5 Zr 0.01188 2.13785 1.51113 0.0127 Uiso
Zr5 Zr 1.01188 1.13785 1.51113 0.0127 Uiso
Zr6 Zr 1.01188 1.36215 1.98887 0.0127 Uiso
Zr8 Zr 0.48812 2.13785 1.98887 0.0127 Uiso
Zr9 Zr 0.51113 1.01188 2.13785 0.0127 Uiso
Zr9 Zr 0.51113 2.01188 1.13785 0.0127 Uiso
Zr10 Zr -0.01113 2.01188 1.36215 0.0127 Uiso
Zr10 Zr 0.98887 2.01188 1.36215 0.0127 Uiso
Zr12 Zr -0.01113 1.48812 2.13785 0.0127 Uiso
Zr12 Zr 0.98887 1.48812 2.13785 0.0127 Uiso
Zr13 Zr -0.13785 1.48887 1.98812 0.0127 Uiso
Zr14 Zr 0.63785 2.01113 1.98812 0.0127 Uiso
Zr16 Zr -0.13785 2.01113 1.51188 0.0127 Uiso
Zr16 Zr 0.86215 2.01113 1.51188 0.0127 Uiso
Zr17 Zr -0.01188 1.86215 1.48887 0.0127 Uiso
Zr18 Zr -0.01188 1.63785 2.01113 0.0127 Uiso
Zr18 Zr 0.98812 1.63785 2.01113 0.0127 Uiso
Zr20 Zr 0.51188 1.86215 2.01113 0.0127 Uiso
Zr22 Zr 1.01113 1.98812 1.63785 0.0127 Uiso
Zr24 Zr 1.01113 1.51188 1.86215 0.0127 Uiso
O2 O 0.29100 2.09150 1.00800 0.0127 Uiso
O4 O 0.20900 2.09150 1.49200 0.0127 Uiso
O6 O 0.00800 1.29100 2.09150 0.0127 Uiso
O8 O 0.49200 1.20900 2.09150 0.0127 Uiso
O10 O 1.09150 1.00800 1.29100 0.0127 Uiso
O12 O 1.09150 1.49200 1.20900 0.0127 Uiso
O22 O -0.09150 1.99200 1.70900 0.0127 Uiso
O24 O -0.09150 1.50800 1.79100 0.0127 Uiso
O50 O 0.31040 1.99270 1.12630 0.0127 Uiso
O52 O 0.18960 1.99270 1.37370 0.0127 Uiso
O54 O 0.12630 1.31040 1.99270 0.0127 Uiso
O56 O 0.37370 1.18960 1.99270 0.0127 Uiso
O58 O 0.99270 1.12630 1.31040 0.0127 Uiso
O60 O 0.99270 1.37370 1.18960 0.0127 Uiso
O70 O 0.00730 1.87370 1.68960 0.0127 Uiso
O72 O 0.00730 1.62630 1.81040 0.0127 Uiso
O77 O -0.09060 1.20880 1.52390 0.0127 Uiso
O78 O -0.09060 1.29120 1.97610 0.0127 Uiso
O85 O 0.79120 1.47610 2.09060 0.0127 Uiso
O86 O 0.70880 1.02390 2.09060 0.0127 Uiso
O89 O 1.09060 1.79120 1.47610 0.0127 Uiso
O90 O 1.09060 1.70880 1.02390 0.0127 Uiso
O93 O 0.47610 2.09060 1.79120 0.0127 Uiso
O94 O 0.02390 2.09060 1.70880 0.0127 Uiso
O97 O 1.07650 1.59170 0.93530 0.0127 Uiso
O100 O 1.07650 1.90830 1.56470 0.0127 Uiso
O101 O -0.06470 2.07650 1.59170 0.0127 Uiso
O102 O -0.06470 1.42350 1.90830 0.0127 Uiso
O104 O 0.56470 2.07650 1.90830 0.0127 Uiso
O105 O 0.59170 0.93530 2.07650 0.0127 Uiso
O108 O 0.90830 1.56470 2.07650 0.0127 Uiso
O109 O -0.07650 1.40830 2.06470 0.0127 Uiso
O109 O 0.92350 1.40830 2.06470 0.0127 Uiso
O110 O 0.57650 1.09170 2.06470 0.0127 Uiso
O112 O -0.07650 1.09170 1.43530 0.0127 Uiso
O113 O 1.06470 1.92350 1.40830 0.0127 Uiso
O114 O 1.06470 1.57650 1.09170 0.0127 Uiso
O117 O 0.40830 2.06470 1.92350 0.0127 Uiso
O118 O 0.09170 2.06470 1.57650 0.0127 Uiso
O120 O 0.09170 1.43530 0.92350 0.0127 Uiso
O153 O 0.07850 1.42150 2.07850 0.0127 Uiso
O153 O 1.07850 1.42150 1.07850 0.0127 Uiso
O154 O 0.42150 1.07850 2.07850 0.0127 Uiso
O154 O 0.42150 2.07850 1.07850 0.0127 Uiso
O156 O 0.07850 2.07850 1.42150 0.0127 Uiso
O156 O 1.07850 1.07850 1.42150 0.0127 Uiso
O157 O -0.07850 1.57850 1.92150 0.0127 Uiso
O160 O -0.07850 1.92150 1.57850 0.0127 Uiso
Zr2 Zr 1.36215 0.98887 0.01188 0.0127 Uiso
Zr3 Zr 1.36215 0.51113 0.48812 0.0127 Uiso
Zr7 Zr 1.48812 0.36215 0.51113 0.0127 Uiso
Zr8 Zr 1.48812 0.13785 0.98887 0.0127 Uiso
Zr9 Zr 1.51113 0.01188 0.13785 0.0127 Uiso
Zr10 Zr 1.98887 0.01188 0.36215 0.0127 Uiso
Zr11 Zr 1.51113 0.48812 0.36215 0.0127 Uiso
Zr12 Zr 1.98887 0.48812 0.13785 0.0127 Uiso
Zr13 Zr 1.86215 0.48887 0.98812 0.0127 Uiso
Zr14 Zr 1.63785 0.01113 0.98812 0.0127 Uiso
Zr15 Zr 1.63785 0.48887 0.51188 0.0127 Uiso
Zr16 Zr 1.86215 0.01113 0.51188 0.0127 Uiso
Zr17 Zr 1.98812 0.86215 0.48887 0.0127 Uiso
Zr18 Zr 1.98812 0.63785 0.01113 0.0127 Uiso
Zr19 Zr 1.51188 0.63785 0.48887 0.0127 Uiso
Zr20 Zr 1.51188 0.86215 0.01113 0.0127 Uiso
Zr21 Zr 1.48887 0.98812 0.86215 0.0127 Uiso
Zr23 Zr 1.48887 0.51188 0.63785 0.0127 Uiso
O1 O 1.20900 0.40850 0.00800 0.0127 Uiso
O2 O 1.29100 0.09150 0.00800 0.0127 Uiso
O3 O 1.29100 0.40850 0.49200 0.0127 Uiso
O4 O 1.20900 0.09150 0.49200 0.0127 Uiso
O5 O 1.00800 0.20900 0.40850 0.0127 Uiso
O6 O 1.00800 0.29100 0.09150 0.0127 Uiso
O7 O 1.49200 0.29100 0.40850 0.0127 Uiso
O8 O 1.49200 0.20900 0.09150 0.0127 Uiso
O9 O 1.40850 0.00800 0.20900 0.0127 Uiso
O11 O 1.40850 0.49200 0.29100 0.0127 Uiso
O13 O 1.79100 0.59150 0.99200 0.0127 Uiso
O14 O 1.70900 0.90850 0.99200 0.0127 Uiso
O15 O 1.70900 0.59150 0.50800 0.0127 Uiso
O16 O 1.79100 0.90850 0.50800 0.0127 Uiso
O17 O 1.99200 0.79100 0.59150 0.0127 Uiso
O18 O 1.99200 0.70900 0.90850 0.0127 Uiso
O19 O 1.50800 0.70900 0.59150 0.0127 Uiso
O20 O 1.50800 0.79100 0.90850 0.0127 Uiso
O21 O 1.59150 0.99200 0.79100 0.0127 Uiso
O22 O 1.90850 0.99200 0.70900 0.0127 Uiso
O23 O 1.59150 0.50800 0.70900 0.0127 Uiso
O24 O 1.90850 0.50800 0.79100 0.0127 Uiso
O25 O 1.19040 0.62460 0.02460 0.0127 Uiso
O26 O 1.30960 0.87540 0.02460 0.0127 Uiso
O27 O 1.30960 0.62460 0.47540 0.0127 Uiso
O28 O 1.19040 0.87540 0.47540 0.0127 Uiso
O29 O 1.02460 0.19040 0.62460 0.0127 Uiso
O30 O 1.02460 0.30960 0.87540 0.0127 Uiso
O31 O 1.47540 0.30960 0.62460 0.0127 Uiso
O32 O 1.47540 0.19040 0.87540 0.0127 Uiso
O33 O 1.62460 0.02460 0.19040 0.0127 Uiso
O34 O 1.87540 0.02460 0.30960 0.0127 Uiso
O35 O 1.62460 0.47540 0.30960 0.0127 Uiso
O36 O 1.87540 0.47540 0.19040 0.0127 Uiso
O37 O 1.80960 0.37540 0.97540 0.0127 Uiso
O38 O 1.69040 0.12460 0.97540 0.0127 Uiso
O39 O 1.69040 0.37540 0.52460 0.0127 Uiso
O40 O 1.80960 0.12460 0.52460 0.0127 Uiso
O41 O 1.97540 0.80960 0.37540 0.0127 Uiso
O42 O 1.97540 0.69040 0.12460 0.0127 Uiso
O43 O 1.52460 0.69040 0.37540 0.0127 Uiso
O44 O 1.52460 0.80960 0.12460 0.0127 Uiso
O45 O 1.37540 0.97540 0.80960 0.0127 Uiso
O46 O 1.12460 0.97540 0.69040 0.0127 Uiso
O47 O 1.37540 0.52460 0.69040 0.0127 Uiso
O48 O 1.12460 0.52460 0.80960 0.0127 Uiso
O49 O 1.18960 0.50730 0.12630 0.0127 Uiso
O50 O 1.31040 -0.00730 0.12630 0.0127 Uiso
O51 O 1.31040 0.50730 0.37370 0.0127 Uiso
O52 O 1.18960 -0.00730 0.37370 0.0127 Uiso
O53 O 1.12630 0.18960 0.50730 0.0127 Uiso
O54 O 1.12630 0.31040 -0.00730 0.0127 Uiso
O55 O 1.37370 0.31040 0.50730 0.0127 Uiso
O56 O 1.37370 0.18960 -0.00730 0.0127 Uiso
O57 O 1.50730 0.12630 0.18960 0.0127 Uiso
O59 O 1.50730 0.37370 0.31040 0.0127 Uiso
O61 O 1.81040 0.49270 0.87370 0.0127 Uiso
O62 O 1.68960 1.00730 0.87370 0.0127 Uiso
O63 O 1.68960 0.49270 0.62630 0.0127 Uiso
O64 O 1.81040 1.00730 0.62630 0.0127 Uiso
O65 O 1.87370 0.81040 0.49270 0.0127 Uiso
O66 O 1.87370 0.68960 1.00730 0.0127 Uiso
O67 O 1.62630 0.68960 0.49270 0.0127 Uiso
O68 O 1.62630 0.81040 1.00730 0.0127 Uiso
O69 O 1.49270 0.87370 0.81040 0.0127 Uiso
O70 O 2.00730 0.87370 0.68960 0.0127 Uiso
O71 O 1.49270 0.62630 0.68960 0.0127 Uiso
O72 O 2.00730 0.62630 0.81040 0.0127 Uiso
O73 O 1.20880 0.52390 0.90940 0.0127 Uiso
O74 O 1.29120 0.97610 0.90940 0.0127 Uiso
O75 O 1.29120 0.52390 0.59060 0.0127 Uiso
O76 O 1.20880 0.97610 0.59060 0.0127 Uiso
O77 O 1.90940 0.20880 0.52390 0.0127 Uiso
O78 O 1.90940 0.29120 0.97610 0.0127 Uiso
O79 O 1.59060 0.29120 0.52390 0.0127 Uiso
O80 O 1.59060 0.20880 0.97610 0.0127 Uiso
O81 O 1.52390 0.90940 0.20880 0.0127 Uiso
O82 O 1.97610 0.90940 0.29120 0.0127 Uiso
O83 O 1.52390 0.59060 0.29120 0.0127 Uiso
O84 O 1.97610 0.59060 0.20880 0.0127 Uiso
O85 O 1.79120 0.47610 0.09060 0.0127 Uiso
O86 O 1.70880 0.02390 0.09060 0.0127 Uiso
O87 O 1.70880 0.47610 0.40940 0.0127 Uiso
O88 O 1.79120 0.02390 0.40940 0.0127 Uiso
O91 O 1.40940 0.70880 0.47610 0.0127 Uiso
O92 O 1.40940 0.79120 0.02390 0.0127 Uiso
O93 O 1.47610 0.09060 0.79120 0.0127 Uiso
O94 O 1.02390 0.09060 0.70880 0.0127 Uiso
O95 O 1.47610 0.40940 0.70880 0.0127 Uiso
O96 O 1.02390 0.40940 0.79120 0.0127 Uiso
C1 C 1.16040 0.68910 0.02400 0.0127 Uiso
C2 C 1.33960 0.81090 0.02400 0.0127 Uiso
C3 C 1.33960 0.68910 0.47600 0.0127 Uiso
C4 C 1.16040 0.81090 0.47600 0.0127 Uiso
C5 C 1.02400 0.16040 0.68910 0.0127 Uiso
C6 C 1.02400 0.33960 0.81090 0.0127 Uiso
C7 C 1.47600 0.33960 0.68910 0.0127 Uiso
C8 C 1.47600 0.16040 0.81090 0.0127 Uiso
C9 C 1.68910 0.02400 0.16040 0.0127 Uiso
C10 C 1.81090 0.02400 0.33960 0.0127 Uiso
C11 C 1.68910 0.47600 0.33960 0.0127 Uiso
C12 C 1.81090 0.47600 0.16040 0.0127 Uiso
C13 C 1.83960 0.31090 0.97600 0.0127 Uiso
C14 C 1.66040 0.18910 0.97600 0.0127 Uiso
C15 C 1.66040 0.31090 0.52400 0.0127 Uiso
C16 C 1.83960 0.18910 0.52400 0.0127 Uiso
C17 C 1.97600 0.83960 0.31090 0.0127 Uiso
C18 C 1.97600 0.66040 0.18910 0.0127 Uiso
C19 C 1.52400 0.66040 0.31090 0.0127 Uiso
C20 C 1.52400 0.83960 0.18910 0.0127 Uiso
C21 C 1.31090 0.97600 0.83960 0.0127 Uiso
C22 C 1.18910 0.97600 0.66040 0.0127 Uiso
C23 C 1.31090 0.52400 0.66040 0.0127 Uiso
C24 C 1.18910 0.52400 0.83960 0.0127 Uiso
C25 C 1.21420 0.75550 0.02430 0.0127 Uiso
C26 C 1.28580 0.74450 0.02430 0.0127 Uiso
C27 C 1.28580 0.75550 0.47570 0.0127 Uiso
C28 C 1.21420 0.74450 0.47570 0.0127 Uiso
C29 C 1.02430 0.21420 0.75550 0.0127 Uiso
C30 C 1.02430 0.28580 0.74450 0.0127 Uiso
C31 C 1.47570 0.28580 0.75550 0.0127 Uiso
C32 C 1.47570 0.21420 0.74450 0.0127 Uiso
C33 C 1.75550 0.02430 0.21420 0.0127 Uiso
C34 C 1.74450 0.02430 0.28580 0.0127 Uiso
C35 C 1.75550 0.47570 0.28580 0.0127 Uiso
C36 C 1.74450 0.47570 0.21420 0.0127 Uiso
C37 C 1.78580 0.24450 0.97570 0.0127 Uiso
C38 C 1.71420 0.25550 0.97570 0.0127 Uiso
C39 C 1.71420 0.24450 0.52430 0.0127 Uiso
C40 C 1.78580 0.25550 0.52430 0.0127 Uiso
C41 C 1.97570 0.78580 0.24450 0.0127 Uiso
C42 C 1.97570 0.71420 0.25550 0.0127 Uiso
C43 C 1.52430 0.71420 0.24450 0.0127 Uiso
C44 C 1.52430 0.78580 0.25550 0.0127 Uiso
C45 C 1.24450 0.97570 0.78580 0.0127 Uiso
C46 C 1.25550 0.97570 0.71420 0.0127 Uiso
C47 C 1.24450 0.52430 0.71420 0.0127 Uiso
C48 C 1.25550 0.52430 0.78580 0.0127 Uiso
H1 H 1.19550 0.80420 0.02440 0.0127 Uiso
H2 H 1.30450 0.69580 0.02440 0.0127 Uiso
H3 H 1.30450 0.80420 0.47560 0.0127 Uiso
H4 H 1.19550 0.69580 0.47560 0.0127 Uiso
H5 H 1.02440 0.19550 0.80420 0.0127 Uiso
H6 H 1.02440 0.30450 0.69580 0.0127 Uiso
H7 H 1.47560 0.30450 0.80420 0.0127 Uiso
H8 H 1.47560 0.19550 0.69580 0.0127 Uiso
H9 H 1.80420 0.02440 0.19550 0.0127 Uiso
H10 H 1.69580 0.02440 0.30450 0.0127 Uiso
H11 H 1.80420 0.47560 0.30450 0.0127 Uiso
H12 H 1.69580 0.47560 0.19550 0.0127 Uiso
H13 H 1.80450 0.19580 0.97560 0.0127 Uiso
H14 H 1.69550 0.30420 0.97560 0.0127 Uiso
H15 H 1.69550 0.19580 0.52440 0.0127 Uiso
H16 H 1.80450 0.30420 0.52440 0.0127 Uiso
H17 H 1.97560 0.80450 0.19580 0.0127 Uiso
H18 H 1.97560 0.69550 0.30420 0.0127 Uiso
H19 H 1.52440 0.69550 0.19580 0.0127 Uiso
H20 H 1.52440 0.80450 0.30420 0.0127 Uiso
H21 H 1.19580 0.97560 0.80450 0.0127 Uiso
H22 H 1.30420 0.97560 0.69550 0.0127 Uiso
H23 H 1.19580 0.52440 0.69550 0.0127 Uiso
H24 H 1.30420 0.52440 0.80450 0.0127 Uiso
C49 C 1.19060 0.33980 0.00000 0.0127 Uiso
C50 C 1.30940 0.16020 0.00000 0.0127 Uiso
C51 C 1.30940 0.33980 0.50000 0.0127 Uiso
C52 C 1.19060 0.16020 0.50000 0.0127 Uiso
C53 C 1.00000 0.19060 0.33980 0.0127 Uiso
C54 C 1.00000 0.30940 0.16020 0.0127 Uiso
C55 C 1.50000 0.30940 0.33980 0.0127 Uiso
C56 C 1.50000 0.19060 0.16020 0.0127 Uiso
C57 C 1.33980 0.00000 0.19060 0.0127 Uiso
C58 C 1.16020 0.00000 0.30940 0.0127 Uiso
C59 C 1.33980 0.50000 0.30940 0.0127 Uiso
C60 C 1.16020 0.50000 0.19060 0.0127 Uiso
C61 C 1.80940 0.66020 1.00000 0.0127 Uiso
C62 C 1.69060 0.83980 1.00000 0.0127 Uiso
C63 C 1.69060 0.66020 0.50000 0.0127 Uiso
C64 C 1.80940 0.83980 0.50000 0.0127 Uiso
C65 C 2.00000 0.80940 0.66020 0.0127 Uiso
C66 C 2.00000 0.69060 0.83980 0.0127 Uiso
C67 C 1.50000 0.69060 0.66020 0.0127 Uiso
C68 C 1.50000 0.80940 0.83980 0.0127 Uiso
C69 C 1.66020 1.00000 0.80940 0.0127 Uiso
C70 C 1.83980 1.00000 0.69060 0.0127 Uiso
C71 C 1.66020 0.50000 0.69060 0.0127 Uiso
C72 C 1.83980 0.50000 0.80940 0.0127 Uiso
C73 C 1.25670 0.28650 0.00010 0.0127 Uiso
C74 C 1.24330 0.21350 0.00010 0.0127 Uiso
C75 C 1.24330 0.28650 0.49990 0.0127 Uiso
C76 C 1.25670 0.21350 0.49990 0.0127 Uiso
C77 C 1.00010 0.25670 0.28650 0.0127 Uiso
C78 C 1.00010 0.24330 0.21350 0.0127 Uiso
C79 C 1.49990 0.24330 0.28650 0.0127 Uiso
C80 C 1.49990 0.25670 0.21350 0.0127 Uiso
C81 C 1.28650 0.00010 0.25670 0.0127 Uiso
C82 C 1.21350 0.00010 0.24330 0.0127 Uiso
C83 C 1.28650 0.49990 0.24330 0.0127 Uiso
C84 C 1.21350 0.49990 0.25670 0.0127 Uiso
C85 C 1.74330 0.71350 0.99990 0.0127 Uiso
C86 C 1.75670 0.78650 0.99990 0.0127 Uiso
C87 C 1.75670 0.71350 0.50010 0.0127 Uiso
C88 C 1.74330 0.78650 0.50010 0.0127 Uiso
C89 C 1.99990 0.74330 0.71350 0.0127 Uiso
C90 C 1.99990 0.75670 0.78650 0.0127 Uiso
C91 C 1.50010 0.75670 0.71350 0.0127 Uiso
C92 C 1.50010 0.74330 0.78650 0.0127 Uiso
C93 C 1.71350 0.99990 0.74330 0.0127 Uiso
C94 C 1.78650 0.99990 0.75670 0.0127 Uiso
C95 C 1.71350 0.50010 0.75670 0.0127 Uiso
C96 C 1.78650 0.50010 0.74330 0.0127 Uiso
H25 H 1.30560 0.30460 0.00010 0.0127 Uiso
H26 H 1.19440 0.19540 0.00010 0.0127 Uiso
H27 H 1.19440 0.30460 0.49990 0.0127 Uiso
H28 H 1.30560 0.19540 0.49990 0.0127 Uiso
H29 H 1.00010 0.30560 0.30460 0.0127 Uiso
H30 H 1.00010 0.19440 0.19540 0.0127 Uiso
H31 H 1.49990 0.19440 0.30460 0.0127 Uiso
H32 H 1.49990 0.30560 0.19540 0.0127 Uiso
H33 H 1.30460 0.00010 0.30560 0.0127 Uiso
H34 H 1.19540 0.00010 0.19440 0.0127 Uiso
H35 H 1.30460 0.49990 0.19440 0.0127 Uiso
H36 H 1.19540 0.49990 0.30560 0.0127 Uiso
H37 H 1.69440 0.69540 0.99990 0.0127 Uiso
H38 H 1.80560 0.80460 0.99990 0.0127 Uiso
H39 H 1.80560 0.69540 0.50010 0.0127 Uiso
H40 H 1.69440 0.80460 0.50010 0.0127 Uiso
H41 H 1.99990 0.69440 0.69540 0.0127 Uiso
H42 H 1.99990 0.80560 0.80460 0.0127 Uiso
H43 H 1.50010 0.80560 0.69540 0.0127 Uiso
H44 H 1.50010 0.69440 0.80460 0.0127 Uiso
H45 H 1.69540 0.99990 0.69440 0.0127 Uiso
H46 H 1.80460 0.99990 0.80560 0.0127 Uiso
H47 H 1.69540 0.50010 0.80560 0.0127 Uiso
H48 H 1.80460 0.50010 0.69440 0.0127 Uiso
O98 O 1.42350 0.90830 0.93530 0.0127 Uiso
O99 O 1.42350 0.59170 0.56470 0.0127 Uiso
O101 O 1.93530 0.07650 0.59170 0.0127 Uiso
O102 O 1.93530 0.42350 0.90830 0.0127 Uiso
O103 O 1.56470 0.42350 0.59170 0.0127 Uiso
O104 O 1.56470 0.07650 0.90830 0.0127 Uiso
O105 O 1.59170 0.93530 0.07650 0.0127 Uiso
O106 O 1.90830 0.93530 0.42350 0.0127 Uiso
O107 O 1.59170 0.56470 0.42350 0.0127 Uiso
O108 O 1.90830 0.56470 0.07650 0.0127 Uiso
O109 O 1.92350 0.40830 0.06470 0.0127 Uiso
O110 O 1.57650 0.09170 0.06470 0.0127 Uiso
O111 O 1.57650 0.40830 0.43530 0.0127 Uiso
O112 O 1.92350 0.09170 0.43530 0.0127 Uiso
O115 O 1.43530 0.57650 0.40830 0.0127 Uiso
O116 O 1.43530 0.92350 0.09170 0.0127 Uiso
O117 O 1.40830 0.06470 0.92350 0.0127 Uiso
O118 O 1.09170 0.06470 0.57650 0.0127 Uiso
O119 O 1.40830 0.43530 0.57650 0.0127 Uiso
O154 O 1.42150 0.07850 0.07850 0.0127 Uiso
O155 O 1.42150 0.42150 0.42150 0.0127 Uiso
O157 O 1.92150 0.57850 0.92150 0.0127 Uiso
O158 O 1.57850 0.92150 0.92150 0.0127 Uiso
O159 O 1.57850 0.57850 0.57850 0.0127 Uiso
O160 O 1.92150 0.92150 0.57850 0.0127 Uiso
Zr1 Zr 2.13785 0.51113 0.01188 0.0127 Uiso
Zr2 Zr 1.36215 -0.01113 0.01188 0.0127 Uiso
Zr2 Zr 1.36215 -0.01113 1.01188 0.0127 Uiso
Zr2 Zr 1.36215 0.98887 1.01188 0.0127 Uiso
Zr4 Zr 2.13785 -0.01113 0.48812 0.0127 Uiso
Zr4 Zr 2.13785 0.98887 0.48812 0.0127 Uiso
Zr5 Zr 2.01188 0.13785 0.51113 0.0127 Uiso
Zr6 Zr 2.01188 0.36215 -0.01113 0.0127 Uiso
Zr6 Zr 2.01188 0.36215 0.98887 0.0127 Uiso
Zr8 Zr 1.48812 0.13785 -0.01113 0.0127 Uiso
Zr8 Zr 1.48812 1.13785 -0.01113 0.0127 Uiso
Zr8 Zr 1.48812 1.13785 0.98887 0.0127 Uiso
Zr9 Zr 1.51113 0.01188 1.13785 0.0127 Uiso
Zr9 Zr 1.51113 1.01188 0.13785 0.0127 Uiso
Zr10 Zr 1.98887 1.01188 0.36215 0.0127 Uiso
Zr12 Zr 1.98887 0.48812 1.13785 0.0127 Uiso
Zr13 Zr 1.86215 0.48887 -0.01188 0.0127 Uiso
Zr14 Zr 1.63785 0.01113 -0.01188 0.0127 Uiso
Zr14 Zr 1.63785 1.01113 -0.01188 0.0127 Uiso
Zr14 Zr 1.63785 1.01113 0.98812 0.0127 Uiso
Zr16 Zr 1.86215 1.01113 0.51188 0.0127 Uiso
Zr17 Zr 1.98812 -0.13785 0.48887 0.0127 Uiso
Zr18 Zr 1.98812 0.63785 1.01113 0.0127 Uiso
Zr20 Zr 1.51188 -0.13785 0.01113 0.0127 Uiso
Zr20 Zr 1.51188 -0.13785 1.01113 0.0127 Uiso
Zr20 Zr 1.51188 0.86215 1.01113 0.0127 Uiso
Zr21 Zr 1.48887 -0.01188 0.86215 0.0127 Uiso
Zr21 Zr 1.48887 0.98812 -0.13785 0.0127 Uiso
Zr22 Zr 2.01113 -0.01188 0.63785 0.0127 Uiso
Zr22 Zr 2.01113 0.98812 0.63785 0.0127 Uiso
Zr24 Zr 2.01113 0.51188 -0.13785 0.0127 Uiso
Zr24 Zr 2.01113 0.51188 0.86215 0.0127 Uiso
O2 O 1.29100 1.09150 0.00800 0.0127 Uiso
O4 O 1.20900 1.09150 0.49200 0.0127 Uiso
O6 O 1.00800 0.29100 1.09150 0.0127 Uiso
O8 O 1.49200 0.20900 1.09150 0.0127 Uiso
O10 O 2.09150 0.00800 0.29100 0.0127 Uiso
O12 O 2.09150 0.49200 0.20900 0.0127 Uiso
O14 O 1.70900 -0.09150 0.99200 0.0127 Uiso
O16 O 1.79100 -0.09150 0.50800 0.0127 Uiso
O18 O 1.99200 0.70900 -0.09150 0.0127 Uiso
O20 O 1.50800 0.79100 -0.09150 0.0127 Uiso
O50 O 1.31040 0.99270 0.12630 0.0127 Uiso
O52 O 1.18960 0.99270 0.37370 0.0127 Uiso
O54 O 1.12630 0.31040 0.99270 0.0127 Uiso
O56 O 1.37370 0.18960 0.99270 0.0127 Uiso
O58 O 1.99270 0.12630 0.31040 0.0127 Uiso
O60 O 1.99270 0.37370 0.18960 0.0127 Uiso
O62 O 1.68960 0.00730 0.87370 0.0127 Uiso
O64 O 1.81040 0.00730 0.62630 0.0127 Uiso
O66 O 1.87370 0.68960 0.00730 0.0127 Uiso
O68 O 1.62630 0.81040 0.00730 0.0127 Uiso
O73 O 1.20880 0.52390 -0.09060 0.0127 Uiso
O74 O 1.29120 0.97610 -0.09060 0.0127 Uiso
O81 O 1.52390 -0.09060 0.20880 0.0127 Uiso
O82 O 1.97610 -0.09060 0.29120 0.0127 Uiso
O85 O 1.79120 0.47610 1.09060 0.0127 Uiso
O86 O 1.70880 0.02390 1.09060 0.0127 Uiso
O89 O 2.09060 0.79120 0.47610 0.0127 Uiso
O90 O 2.09060 0.70880 0.02390 0.0127 Uiso
O93 O 1.47610 1.09060 0.79120 0.0127 Uiso
O94 O 1.02390 1.09060 0.70880 0.0127 Uiso
O97 O 2.07650 0.59170 -0.06470 0.0127 Uiso
O98 O 1.42350 0.90830 -0.06470 0.0127 Uiso
O100 O 2.07650 0.90830 0.56470 0.0127 Uiso
O104 O 1.56470 1.07650 0.90830 0.0127 Uiso
O105 O 1.59170 -0.06470 0.07650 0.0127 Uiso
O105 O 1.59170 -0.06470 1.07650 0.0127 Uiso
O106 O 1.90830 -0.06470 0.42350 0.0127 Uiso
O108 O 1.90830 0.56470 1.07650 0.0127 Uiso
O109 O 1.92350 0.40830 1.06470 0.0127 Uiso
O110 O 1.57650 0.09170 1.06470 0.0127 Uiso
O113 O 2.06470 -0.07650 0.40830 0.0127 Uiso
O113 O 2.06470 0.92350 0.40830 0.0127 Uiso
O114 O 2.06470 0.57650 0.09170 0.0127 Uiso
O116 O 1.43530 -0.07650 0.09170 0.0127 Uiso
O117 O 1.40830 1.06470 -0.07650 0.0127 Uiso
O117 O 1.40830 1.06470 0.92350 0.0127 Uiso
O118 O 1.09170 1.06470 0.57650 0.0127 Uiso
O120 O 1.09170 0.43530 -0.07650 0.0127 Uiso
O153 O 2.07850 0.42150 0.07850 0.0127 Uiso
O154 O 1.42150 0.07850 1.07850 0.0127 Uiso
O154 O 1.42150 1.07850 0.07850 0.0127 Uiso
O156 O 2.07850 0.07850 0.42150 0.0127 Uiso
O157 O 1.92150 0.57850 -0.07850 0.0127 Uiso
O158 O 1.57850 -0.07850 0.92150 0.0127 Uiso
O158 O 1.57850 0.92150 -0.07850 0.0127 Uiso
O160 O 1.92150 -0.07850 0.57850 0.0127 Uiso
Zr3 Zr 1.36215 0.51113 1.48812 0.0127 Uiso
Zr7 Zr 1.48812 0.36215 1.51113 0.0127 Uiso
Zr8 Zr 1.48812 0.13785 1.98887 0.0127 Uiso
Zr10 Zr 1.98887 0.01188 1.36215 0.0127 Uiso
Zr11 Zr 1.51113 0.48812 1.36215 0.0127 Uiso
Zr13 Zr 1.86215 0.48887 1.98812 0.0127 Uiso
Zr14 Zr 1.63785 0.01113 1.98812 0.0127 Uiso
Zr15 Zr 1.63785 0.48887 1.51188 0.0127 Uiso
Zr16 Zr 1.86215 0.01113 1.51188 0.0127 Uiso
Zr17 Zr 1.98812 0.86215 1.48887 0.0127 Uiso
Zr19 Zr 1.51188 0.63785 1.48887 0.0127 Uiso
Zr21 Zr 1.48887 0.98812 1.86215 0.0127 Uiso
Zr23 Zr 1.48887 0.51188 1.63785 0.0127 Uiso
O1 O 1.20900 0.40850 1.00800 0.0127 Uiso
O2 O 1.29100 0.09150 1.00800 0.0127 Uiso
O3 O 1.29100 0.40850 1.49200 0.0127 Uiso
O4 O 1.20900 0.09150 1.49200 0.0127 Uiso
O5 O 1.00800 0.20900 1.40850 0.0127 Uiso
O7 O 1.49200 0.29100 1.40850 0.0127 Uiso
O9 O 1.40850 0.00800 1.20900 0.0127 Uiso
O11 O 1.40850 0.49200 1.29100 0.0127 Uiso
O13 O 1.79100 0.59150 1.99200 0.0127 Uiso
O14 O 1.70900 0.90850 1.99200 0.0127 Uiso
O15 O 1.70900 0.59150 1.50800 0.0127 Uiso
O16 O 1.79100 0.90850 1.50800 0.0127 Uiso
O17 O 1.99200 0.79100 1.59150 0.0127 Uiso
O18 O 1.99200 0.70900 1.90850 0.0127 Uiso
O19 O 1.50800 0.70900 1.59150 0.0127 Uiso
O20 O 1.50800 0.79100 1.90850 0.0127 Uiso
O21 O 1.59150 0.99200 1.79100 0.0127 Uiso
O22 O 1.90850 0.99200 1.70900 0.0127 Uiso
O23 O 1.59150 0.50800 1.70900 0.0127 Uiso
O24 O 1.90850 0.50800 1.79100 0.0127 Uiso
O25 O 1.19040 0.62460 1.02460 0.0127 Uiso
O26 O 1.30960 0.87540 1.02460 0.0127 Uiso
O27 O 1.30960 0.62460 1.47540 0.0127 Uiso
O28 O 1.19040 0.87540 1.47540 0.0127 Uiso
O29 O 1.02460 0.19040 1.62460 0.0127 Uiso
O30 O 1.02460 0.30960 1.87540 0.0127 Uiso
O31 O 1.47540 0.30960 1.62460 0.0127 Uiso
O32 O 1.47540 0.19040 1.87540 0.0127 Uiso
O33 O 1.62460 0.02460 1.19040 0.0127 Uiso
O34 O 1.87540 0.02460 1.30960 0.0127 Uiso
O35 O 1.62460 0.47540 1.30960 0.0127 Uiso
O36 O 1.87540 0.47540 1.19040 0.0127 Uiso
O37 O 1.80960 0.37540 1.97540 0.0127 Uiso
O38 O 1.69040 0.12460 1.97540 0.0127 Uiso
O39 O 1.69040 0.37540 1.52460 0.0127 Uiso
O40 O 1.80960 0.12460 1.52460 0.0127 Uiso
O41 O 1.97540 0.80960 1.37540 0.0127 Uiso
O42 O 1.97540 0.69040 1.12460 0.0127 Uiso
O43 O 1.52460 0.69040 1.37540 0.0127 Uiso
O44 O 1.52460 0.80960 1.12460 0.0127 Uiso
O45 O 1.37540 0.97540 1.80960 0.0127 Uiso
O46 O 1.12460 0.97540 1.69040 0.0127 Uiso
O47 O 1.37540 0.52460 1.69040 0.0127 Uiso
O48 O 1.12460 0.52460 1.80960 0.0127 Uiso
O49 O 1.18960 0.50730 1.12630 0.0127 Uiso
O50 O 1.31040 -0.00730 1.12630 0.0127 Uiso
O51 O 1.31040 0.50730 1.37370 0.0127 Uiso
O52 O 1.18960 -0.00730 1.37370 0.0127 Uiso
O53 O 1.12630 0.18960 1.50730 0.0127 Uiso
O55 O 1.37370 0.31040 1.50730 0.0127 Uiso
O57 O 1.50730 0.12630 1.18960 0.0127 Uiso
O59 O 1.50730 0.37370 1.31040 0.0127 Uiso
O61 O 1.81040 0.49270 1.87370 0.0127 Uiso
O62 O 1.68960 1.00730 1.87370 0.0127 Uiso
O63 O 1.68960 0.49270 1.62630 0.0127 Uiso
O64 O 1.81040 1.00730 1.62630 0.0127 Uiso
O65 O 1.87370 0.81040 1.49270 0.0127 Uiso
O66 O 1.87370 0.68960 2.00730 0.0127 Uiso
O67 O 1.62630 0.68960 1.49270 0.0127 Uiso
O68 O 1.62630 0.81040 2.00730 0.0127 Uiso
O69 O 1.49270 0.87370 1.81040 0.0127 Uiso
O70 O 2.00730 0.87370 1.68960 0.0127 Uiso
O71 O 1.49270 0.62630 1.68960 0.0127 Uiso
O72 O 2.00730 0.62630 1.81040 0.0127 Uiso
O73 O 1.20880 0.52390 1.90940 0.0127 Uiso
O74 O 1.29120 0.97610 1.90940 0.0127 Uiso
O75 O 1.29120 0.52390 1.59060 0.0127 Uiso
O76 O 1.20880 0.97610 1.59060 0.0127 Uiso
O77 O 1.90940 0.20880 1.52390 0.0127 Uiso
O78 O 1.90940 0.29120 1.97610 0.0127 Uiso
O79 O 1.59060 0.29120 1.52390 0.0127 Uiso
O80 O 1.59060 0.20880 1.97610 0.0127 Uiso
O81 O 1.52390 0.90940 1.20880 0.0127 Uiso
O82 O 1.97610 0.90940 1.29120 0.0127 Uiso
O83 O 1.52390 0.59060 1.29120 0.0127 Uiso
O84 O 1.97610 0.59060 1.20880 0.0127 Uiso
O87 O 1.70880 0.47610 1.40940 0.0127 Uiso
O88 O 1.79120 0.02390 1.40940 0.0127 Uiso
O91 O 1.40940 0.70880 1.47610 0.0127 Uiso
O92 O 1.40940 0.79120 1.02390 0.0127 Uiso
O93 O 1.47610 0.09060 1.79120 0.0127 Uiso
O94 O 1.02390 0.09060 1.70880 0.0127 Uiso
O95 O 1.47610 0.40940 1.70880 0.0127 Uiso
O96 O 1.02390 0.40940 1.79120 0.0127 Uiso
C1 C 1.16040 0.68910 1.02400 0.0127 Uiso
C2 C 1.33960 0.81090 1.02400 0.0127 Uiso
C3 C 1.33960 0.68910 1.47600 0.0127 Uiso
C4 C 1.16040 0.81090 1.47600 0.0127 Uiso
C5 C 1.02400 0.16040 1.68910 0.0127 Uiso
C6 C 1.02400 0.33960 1.81090 0.0127 Uiso
C7 C 1.47600 0.33960 1.68910 0.0127 Uiso
C8 C 1.47600 0.16040 1.81090 0.0127 Uiso
C9 C 1.68910 0.02400 1.16040 0.0127 Uiso
C10 C 1.81090 0.02400 1.33960 0.0127 Uiso
C11 C 1.68910 0.47600 1.33960 0.0127 Uiso
C12 C 1.81090 0.47600 1.16040 0.0127 Uiso
C13 C 1.83960 0.31090 1.97600 0.0127 Uiso
C14 C 1.66040 0.18910 1.97600 0.0127 Uiso
C15 C 1.66040 0.31090 1.52400 0.0127 Uiso
C16 C 1.83960 0.18910 1.52400 0.0127 Uiso
C17 C 1.97600 0.83960 1.31090 0.0127 Uiso
C18 C 1.97600 0.66040 1.18910 0.0127 Uiso
C19 C 1.52400 0.66040 1.31090 0.0127 Uiso
C20 C 1.52400 0.83960 1.18910 0.0127 Uiso
C21 C 1.31090 0.97600 1.83960 0.0127 Uiso
C22 C 1.18910 0.97600 1.66040 0.0127 Uiso
C23 C 1.31090 0.52400 1.66040 0.0127 Uiso
C24 C 1.18910 0.52400 1.83960 0.0127 Uiso
C25 C 1.21420 0.75550 1.02430 0.0127 Uiso
C26 C 1.28580 0.74450 1.02430 0.0127 Uiso
C27 C 1.28580 0.75550 1.47570 0.0127 Uiso
C28 C 1.21420 0.74450 1.47570 0.0127 Uiso
C29 C 1.02430 0.21420 1.75550 0.0127 Uiso
C30 C 1.02430 0.28580 1.74450 0.0127 Uiso
C31 C 1.47570 0.28580 1.75550 0.0127 Uiso
C32 C 1.47570 0.21420 1.74450 0.0127 Uiso
C33 C 1.75550 0.02430 1.21420 0.0127 Uiso
C34 C 1.74450 0.02430 1.28580 0.0127 Uiso
C35 C 1.75550 0.47570 1.28580 0.0127 Uiso
C36 C 1.74450 0.47570 1.21420 0.0127 Uiso
C37 C 1.78580 0.24450 1.97570 0.0127 Uiso
C38 C 1.71420 0.25550 1.97570 0.0127 Uiso
C39 C 1.71420 0.24450 1.52430 0.0127 Uiso
C40 C 1.78580 0.25550 1.52430 0.0127 Uiso
C41 C 1.97570 0.78580 1.24450 0.0127 Uiso
C42 C 1.97570 0.71420 1.25550 0.0127 Uiso
C43 C 1.52430 0.71420 1.24450 0.0127 Uiso
C44 C 1.52430 0.78580 1.25550 0.0127 Uiso
C45 C 1.24450 0.97570 1.78580 0.0127 Uiso
C46 C 1.25550 0.97570 1.71420 0.0127 Uiso
C47 C 1.24450 0.52430 1.71420 0.0127 Uiso
C48 C 1.25550 0.52430 1.78580 0.0127 Uiso
H1 H 1.19550 0.80420 1.02440 0.0127 Uiso
H2 H 1.30450 0.69580 1.02440 0.0127 Uiso
H3 H 1.30450 0.80420 1.47560 0.0127 Uiso
H4 H 1.19550 0.69580 1.47560 0.0127 Uiso
H5 H 1.02440 0.19550 1.80420 0.0127 Uiso
H6 H 1.02440 0.30450 1.69580 0.0127 Uiso
H7 H 1.47560 0.30450 1.80420 0.0127 Uiso
H8 H 1.47560 0.19550 1.69580 0.0127 Uiso
H9 H 1.80420 0.02440 1.19550 0.0127 Uiso
H10 H 1.69580 0.02440 1.30450 0.0127 Uiso
H11 H 1.80420 0.47560 1.30450 0.0127 Uiso
H12 H 1.69580 0.47560 1.19550 0.0127 Uiso
H13 H 1.80450 0.19580 1.97560 0.0127 Uiso
H14 H 1.69550 0.30420 1.97560 0.0127 Uiso
H15 H 1.69550 0.19580 1.52440 0.0127 Uiso
H16 H 1.80450 0.30420 1.52440 0.0127 Uiso
H17 H 1.97560 0.80450 1.19580 0.0127 Uiso
H18 H 1.97560 0.69550 1.30420 0.0127 Uiso
H19 H 1.52440 0.69550 1.19580 0.0127 Uiso
H20 H 1.52440 0.80450 1.30420 0.0127 Uiso
H21 H 1.19580 0.97560 1.80450 0.0127 Uiso
H22 H 1.30420 0.97560 1.69550 0.0127 Uiso
H23 H 1.19580 0.52440 1.69550 0.0127 Uiso
H24 H 1.30420 0.52440 1.80450 0.0127 Uiso
C49 C 1.19060 0.33980 1.00000 0.0127 Uiso
C50 C 1.30940 0.16020 1.00000 0.0127 Uiso
C51 C 1.30940 0.33980 1.50000 0.0127 Uiso
C52 C 1.19060 0.16020 1.50000 0.0127 Uiso
C53 C 1.00000 0.19060 1.33980 0.0127 Uiso
C54 C 1.00000 0.30940 1.16020 0.0127 Uiso
C55 C 1.50000 0.30940 1.33980 0.0127 Uiso
C56 C 1.50000 0.19060 1.16020 0.0127 Uiso
C57 C 1.33980 0.00000 1.19060 0.0127 Uiso
C58 C 1.16020 0.00000 1.30940 0.0127 Uiso
C59 C 1.33980 0.50000 1.30940 0.0127 Uiso
C60 C 1.16020 0.50000 1.19060 0.0127 Uiso
C61 C 1.80940 0.66020 2.00000 0.0127 Uiso
C62 C 1.69060 0.83980 2.00000 0.0127 Uiso
C63 C 1.69060 0.66020 1.50000 0.0127 Uiso
C64 C 1.80940 0.83980 1.50000 0.0127 Uiso
C65 C 2.00000 0.80940 1.66020 0.0127 Uiso
C66 C 2.00000 0.69060 1.83980 0.0127 Uiso
C67 C 1.50000 0.69060 1.66020 0.0127 Uiso
C68 C 1.50000 0.80940 1.83980 0.0127 Uiso
C69 C 1.66020 1.00000 1.80940 0.0127 Uiso
C70 C 1.83980 1.00000 1.69060 0.0127 Uiso
C71 C 1.66020 0.50000 1.69060 0.0127 Uiso
C72 C 1.83980 0.50000 1.80940 0.0127 Uiso
C73 C 1.25670 0.28650 1.00010 0.0127 Uiso
C74 C 1.24330 0.21350 1.00010 0.0127 Uiso
C75 C 1.24330 0.28650 1.49990 0.0127 Uiso
C76 C 1.25670 0.21350 1.49990 0.0127 Uiso
C77 C 1.00010 0.25670 1.28650 0.0127 Uiso
C78 C 1.00010 0.24330 1.21350 0.0127 Uiso
C79 C 1.49990 0.24330 1.28650 0.0127 Uiso
C80 C 1.49990 0.25670 1.21350 0.0127 Uiso
C81 C 1.28650 0.00010 1.25670 0.0127 Uiso
C82 C 1.21350 0.00010 1.24330 0.0127 Uiso
C83 C 1.28650 0.49990 1.24330 0.0127 Uiso
C84 C 1.21350 0.49990 1.25670 0.0127 Uiso
C85 C 1.74330 0.71350 1.99990 0.0127 Uiso
C86 C 1.75670 0.78650 1.99990 0.0127 Uiso
C87 C 1.75670 0.71350 1.50010 0.0127 Uiso
C88 C 1.74330 0.78650 1.50010 0.0127 Uiso
C89 C 1.99990 0.74330 1.71350 0.0127 Uiso
C90 C 1.99990 0.75670 1.78650 0.0127 Uiso
C91 C 1.50010 0.75670 1.71350 0.0127 Uiso
C92 C 1.50010 0.74330 1.78650 0.0127 Uiso
C93 C 1.71350 0.99990 1.74330 0.0127 Uiso
C94 C 1.78650 0.99990 1.75670 0.0127 Uiso
C95 C 1.71350 0.50010 1.75670 0.0127 Uiso
C96 C 1.78650 0.50010 1.74330 0.0127 Uiso
H25 H 1.30560 0.30460 1.00010 0.0127 Uiso
H26 H 1.19440 0.19540 1.00010 0.0127 Uiso
H27 H 1.19440 0.30460 1.49990 0.0127 Uiso
H28 H 1.30560 0.19540 1.49990 0.0127 Uiso
H29 H 1.00010 0.30560 1.30460 0.0127 Uiso
H30 H 1.00010 0.19440 1.19540 0.0127 Uiso
H31 H 1.49990 0.19440 1.30460 0.0127 Uiso
H32 H 1.49990 0.30560 1.19540 0.0127 Uiso
H33 H 1.30460 0.00010 1.30560 0.0127 Uiso
H34 H 1.19540 0.00010 1.19440 0.0127 Uiso
H35 H 1.30460 0.49990 1.19440 0.0127 Uiso
H36 H 1.19540 0.49990 1.30560 0.0127 Uiso
H37 H 1.69440 0.69540 1.99990 0.0127 Uiso
H38 H 1.80560 0.80460 1.99990 0.0127 Uiso
H39 H 1.80560 0.69540 1.50010 0.0127 Uiso
H40 H 1.69440 0.80460 1.50010 0.0127 Uiso
H41 H 1.99990 0.69440 1.69540 0.0127 Uiso
H42 H 1.99990 0.80560 1.80460 0.0127 Uiso
H43 H 1.50010 0.80560 1.69540 0.0127 Uiso
H44 H 1.50010 0.69440 1.80460 0.0127 Uiso
H45 H 1.69540 0.99990 1.69440 0.0127 Uiso
H46 H 1.80460 0.99990 1.80560 0.0127 Uiso
H47 H 1.69540 0.50010 1.80560 0.0127 Uiso
H48 H 1.80460 0.50010 1.69440 0.0127 Uiso
O97 O 1.07650 0.59170 1.93530 0.0127 Uiso
O98 O 1.42350 0.90830 1.93530 0.0127 Uiso
O99 O 1.42350 0.59170 1.56470 0.0127 Uiso
O101 O 1.93530 0.07650 1.59170 0.0127 Uiso
O102 O 1.93530 0.42350 1.90830 0.0127 Uiso
O103 O 1.56470 0.42350 1.59170 0.0127 Uiso
O104 O 1.56470 0.07650 1.90830 0.0127 Uiso
O105 O 1.59170 0.93530 1.07650 0.0127 Uiso
O106 O 1.90830 0.93530 1.42350 0.0127 Uiso
O107 O 1.59170 0.56470 1.42350 0.0127 Uiso
O111 O 1.57650 0.40830 1.43530 0.0127 Uiso
O112 O 1.92350 0.09170 1.43530 0.0127 Uiso
O115 O 1.43530 0.57650 1.40830 0.0127 Uiso
O116 O 1.43530 0.92350 1.09170 0.0127 Uiso
O117 O 1.40830 0.06470 1.92350 0.0127 Uiso
O118 O 1.09170 0.06470 1.57650 0.0127 Uiso
O119 O 1.40830 0.43530 1.57650 0.0127 Uiso
O155 O 1.42150 0.42150 1.42150 0.0127 Uiso
O157 O 1.92150 0.57850 1.92150 0.0127 Uiso
O158 O 1.57850 0.92150 1.92150 0.0127 Uiso
O159 O 1.57850 0.57850 1.57850 0.0127 Uiso
O160 O 1.92150 0.92150 1.57850 0.0127 Uiso
Zr1 Zr 1.13785 0.51113 2.01188 0.0127 Uiso
Zr1 Zr 2.13785 0.51113 1.01188 0.0127 Uiso
Zr2 Zr 1.36215 -0.01113 2.01188 0.0127 Uiso
Zr2 Zr 1.36215 0.98887 2.01188 0.0127 Uiso
Zr4 Zr 2.13785 -0.01113 1.48812 0.0127 Uiso
Zr4 Zr 2.13785 0.98887 1.48812 0.0127 Uiso
Zr5 Zr 2.01188 0.13785 1.51113 0.0127 Uiso
Zr6 Zr 2.01188 0.36215 1.98887 0.0127 Uiso
Zr8 Zr 1.48812 1.13785 1.98887 0.0127 Uiso
Zr9 Zr 1.51113 0.01188 2.13785 0.0127 Uiso
Zr9 Zr 1.51113 1.01188 1.13785 0.0127 Uiso
Zr10 Zr 1.98887 1.01188 1.36215 0.0127 Uiso
Zr12 Zr 1.98887 0.48812 2.13785 0.0127 Uiso
Zr14 Zr 1.63785 1.01113 1.98812 0.0127 Uiso
Zr16 Zr 1.86215 1.01113 1.51188 0.0127 Uiso
Zr17 Zr 1.98812 -0.13785 1.48887 0.0127 Uiso
Zr18 Zr 1.98812 0.63785 2.01113 0.0127 Uiso
Zr20 Zr 1.51188 -0.13785 2.01113 0.0127 Uiso
Zr20 Zr 1.51188 0.86215 2.01113 0.0127 Uiso
Zr21 Zr 1.48887 -0.01188 1.86215 0.0127 Uiso
Zr22 Zr 2.01113 -0.01188 1.63785 0.0127 Uiso
Zr22 Zr 2.01113 0.98812 1.63785 0.0127 Uiso
Zr24 Zr 2.01113 0.51188 1.86215 0.0127 Uiso
O2 O 1.29100 1.09150 1.00800 0.0127 Uiso
O4 O 1.20900 1.09150 1.49200 0.0127 Uiso
O6 O 1.00800 0.29100 2.09150 0.0127 Uiso
O8 O 1.49200 0.20900 2.09150 0.0127 Uiso
O10 O 2.09150 0.00800 1.29100 0.0127 Uiso
O12 O 2.09150 0.49200 1.20900 0.0127 Uiso
O14 O 1.70900 -0.09150 1.99200 0.0127 Uiso
O16 O 1.79100 -0.09150 1.50800 0.0127 Uiso
O50 O 1.31040 0.99270 1.12630 0.0127 Uiso
O52 O 1.18960 0.99270 1.37370 0.0127 Uiso
O54 O 1.12630 0.31040 1.99270 0.0127 Uiso
O56 O 1.37370 0.18960 1.99270 0.0127 Uiso
O58 O 1.99270 0.12630 1.31040 0.0127 Uiso
O60 O 1.99270 0.37370 1.18960 0.0127 Uiso
O62 O 1.68960 0.00730 1.87370 0.0127 Uiso
O64 O 1.81040 0.00730 1.62630 0.0127 Uiso
O81 O 1.52390 -0.09060 1.20880 0.0127 Uiso
O82 O 1.97610 -0.09060 1.29120 0.0127 Uiso
O85 O 1.79120 0.47610 2.09060 0.0127 Uiso
O86 O 1.70880 0.02390 2.09060 0.0127 Uiso
O89 O 2.09060 0.79120 1.47610 0.0127 Uiso
O90 O 2.09060 0.70880 1.02390 0.0127 Uiso
O93 O 1.47610 1.09060 1.79120 0.0127 Uiso
O94 O 1.02390 1.09060 1.70880 0.0127 Uiso
O97 O 2.07650 0.59170 0.93530 0.0127 Uiso
O100 O 2.07650 0.90830 1.56470 0.0127 Uiso
O104 O 1.56470 1.07650 1.90830 0.0127 Uiso
O105 O 1.59170 -0.06470 2.07650 0.0127 Uiso
O106 O 1.90830 -0.06470 1.42350 0.0127 Uiso
O108 O 1.90830 0.56470 2.07650 0.0127 Uiso
O109 O 1.92350 0.40830 2.06470 0.0127 Uiso
O110 O 1.57650 0.09170 2.06470 0.0127 Uiso
O113 O 2.06470 -0.07650 1.40830 0.0127 Uiso
O113 O 2.06470 0.92350 1.40830 0.0127 Uiso
O114 O 2.06470 0.57650 1.09170 0.0127 Uiso
O116 O 1.43530 -0.07650 1.09170 0.0127 Uiso
O117 O 1.40830 1.06470 1.92350 0.0127 Uiso
O118 O 1.09170 1.06470 1.57650 0.0127 Uiso
O120 O 1.09170 0.43530 0.92350 0.0127 Uiso
O153 O 1.07850 0.42150 2.07850 0.0127 Uiso
O153 O 2.07850 0.42150 1.07850 0.0127 Uiso
O154 O 1.42150 0.07850 2.07850 0.0127 Uiso
O154 O 1.42150 1.07850 1.07850 0.0127 Uiso
O156 O 2.07850 0.07850 1.42150 0.0127 Uiso
O158 O 1.57850 -0.07850 1.92150 0.0127 Uiso
O160 O 1.92150 -0.07850 1.57850 0.0127 Uiso
Zr2 Zr 1.36215 1.98887 0.01188 0.0127 Uiso
Zr3 Zr 1.36215 1.51113 0.48812 0.0127 Uiso
Zr7 Zr 1.48812 1.36215 0.51113 0.0127 Uiso
Zr11 Zr 1.51113 1.48812 0.36215 0.0127 Uiso
Zr12 Zr 1.98887 1.48812 0.13785 0.0127 Uiso
Zr13 Zr 1.86215 1.48887 0.98812 0.0127 Uiso
Zr15 Zr 1.63785 1.48887 0.51188 0.0127 Uiso
Zr17 Zr 1.98812 1.86215 0.48887 0.0127 Uiso
Zr18 Zr 1.98812 1.63785 0.01113 0.0127 Uiso
Zr19 Zr 1.51188 1.63785 0.48887 0.0127 Uiso
Zr20 Zr 1.51188 1.86215 0.01113 0.0127 Uiso
Zr21 Zr 1.48887 1.98812 0.86215 0.0127 Uiso
Zr23 Zr 1.48887 1.51188 0.63785 0.0127 Uiso
O1 O 1.20900 1.40850 0.00800 0.0127 Uiso
O3 O 1.29100 1.40850 0.49200 0.0127 Uiso
O5 O 1.00800 1.20900 0.40850 0.0127 Uiso
O6 O 1.00800 1.29100 0.09150 0.0127 Uiso
O7 O 1.49200 1.29100 0.40850 0.0127 Uiso
O8 O 1.49200 1.20900 0.09150 0.0127 Uiso
O9 O 1.40850 1.00800 0.20900 0.0127 Uiso
O11 O 1.40850 1.49200 0.29100 0.0127 Uiso
O13 O 1.79100 1.59150 0.99200 0.0127 Uiso
O14 O 1.70900 1.90850 0.99200 0.0127 Uiso
O15 O 1.70900 1.59150 0.50800 0.0127 Uiso
O16 O 1.79100 1.90850 0.50800 0.0127 Uiso
O17 O 1.99200 1.79100 0.59150 0.0127 Uiso
O18 O 1.99200 1.70900 0.90850 0.0127 Uiso
O19 O 1.50800 1.70900 0.59150 0.0127 Uiso
O20 O 1.50800 1.79100 0.90850 0.0127 Uiso
O21 O 1.59150 1.99200 0.79100 0.0127 Uiso
O22 O 1.90850 1.99200 0.70900 0.0127 Uiso
O23 O 1.59150 1.50800 0.70900 0.0127 Uiso
O24 O 1.90850 1.50800 0.79100 0.0127 Uiso
O25 O 1.19040 1.62460 0.02460 0.0127 Uiso
O26 O 1.30960 1.87540 0.02460 0.0127 Uiso
O27 O 1.30960 1.62460 0.47540 0.0127 Uiso
O28 O 1.19040 1.87540 0.47540 0.0127 Uiso
O29 O 1.02460 1.19040 0.62460 0.0127 Uiso
O30 O 1.02460 1.30960 0.87540 0.0127 Uiso
O31 O 1.47540 1.30960 0.62460 0.0127 Uiso
O32 O 1.47540 1.19040 0.87540 0.0127 Uiso
O33 O 1.62460 1.02460 0.19040 0.0127 Uiso
O34 O 1.87540 1.02460 0.30960 0.0127 Uiso
O35 O 1.62460 1.47540 0.30960 0.0127 Uiso
O36 O 1.87540 1.47540 0.19040 0.0127 Uiso
O37 O 1.80960 1.37540 0.97540 0.0127 Uiso
O38 O 1.69040 1.12460 0.97540 0.0127 Uiso
O39 O 1.69040 1.37540 0.52460 0.0127 Uiso
O40 O 1.80960 1.12460 0.52460 0.0127 Uiso
O41 O 1.97540 1.80960 0.37540 0.0127 Uiso
O42 O 1.97540 1.69040 0.12460 0.0127 Uiso
O43 O 1.52460 1.69040 0.37540 0.0127 Uiso
O44 O 1.52460 1.80960 0.12460 0.0127 Uiso
O45 O 1.37540 1.97540 0.80960 0.0127 Uiso
O46 O 1.12460 1.97540 0.69040 0.0127 Uiso
O47 O 1.37540 1.52460 0.69040 0.0127 Uiso
O48 O 1.12460 1.52460 0.80960 0.0127 Uiso
O49 O 1.18960 1.50730 0.12630 0.0127 Uiso
O51 O 1.31040 1.50730 0.37370 0.0127 Uiso
O53 O 1.12630 1.18960 0.50730 0.0127 Uiso
O54 O 1.12630 1.31040 -0.00730 0.0127 Uiso
O55 O 1.37370 1.31040 0.50730 0.0127 Uiso
O56 O 1.37370 1.18960 -0.00730 0.0127 Uiso
O57 O 1.50730 1.12630 0.18960 0.0127 Uiso
O59 O 1.50730 1.37370 0.31040 0.0127 Uiso
O61 O 1.81040 1.49270 0.87370 0.0127 Uiso
O62 O 1.68960 2.00730 0.87370 0.0127 Uiso
O63 O 1.68960 1.49270 0.62630 0.0127 Uiso
O64 O 1.81040 2.00730 0.62630 0.0127 Uiso
O65 O 1.87370 1.81040 0.49270 0.0127 Uiso
O66 O 1.87370 1.68960 1.00730 0.0127 Uiso
O67 O 1.62630 1.68960 0.49270 0.0127 Uiso
O68 O 1.62630 1.81040 1.00730 0.0127 Uiso
O69 O 1.49270 1.87370 0.81040 0.0127 Uiso
O70 O 2.00730 1.87370 0.68960 0.0127 Uiso
O71 O 1.49270 1.62630 0.68960 0.0127 Uiso
O72 O 2.00730 1.62630 0.81040 0.0127 Uiso
O73 O 1.20880 1.52390 0.90940 0.0127 Uiso
O74 O 1.29120 1.97610 0.90940 0.0127 Uiso
O75 O 1.29120 1.52390 0.59060 0.0127 Uiso
O76 O 1.20880 1.97610 0.59060 0.0127 Uiso
O77 O 1.90940 1.20880 0.52390 0.0127 Uiso
O78 O 1.90940 1.29120 0.97610 0.0127 Uiso
O79 O 1.59060 1.29120 0.52390 0.0127 Uiso
O80 O 1.59060 1.20880 0.97610 0.0127 Uiso
O81 O 1.52390 1.90940 0.20880 0.0127 Uiso
O82 O 1.97610 1.90940 0.29120 0.0127 Uiso
O83 O 1.52390 1.59060 0.29120 0.0127 Uiso
O84 O 1.97610 1.59060 0.20880 0.0127 Uiso
O85 O 1.79120 1.47610 0.09060 0.0127 Uiso
O86 O 1.70880 1.02390 0.09060 0.0127 Uiso
O87 O 1.70880 1.47610 0.40940 0.0127 Uiso
O88 O 1.79120 1.02390 0.40940 0.0127 Uiso
O91 O 1.40940 1.70880 0.47610 0.0127 Uiso
O92 O 1.40940 1.79120 0.02390 0.0127 Uiso
O95 O 1.47610 1.40940 0.70880 0.0127 Uiso
O96 O 1.02390 1.40940 0.79120 0.0127 Uiso
C1 C 1.16040 1.68910 0.02400 0.0127 Uiso
C2 C 1.33960 1.81090 0.02400 0.0127 Uiso
C3 C 1.33960 1.68910 0.47600 0.0127 Uiso
C4 C 1.16040 1.81090 0.47600 0.0127 Uiso
C5 C 1.02400 1.16040 0.68910 0.0127 Uiso
C6 C 1.02400 1.33960 0.81090 0.0127 Uiso
C7 C 1.47600 1.33960 0.68910 0.0127 Uiso
C8 C 1.47600 1.16040 0.81090 0.0127 Uiso
C9 C 1.68910 1.02400 0.16040 0.0127 Uiso
C10 C 1.81090 1.02400 0.33960 0.0127 Uiso
C11 C 1.68910 1.47600 0.33960 0.0127 Uiso
C12 C 1.81090 1.47600 0.16040 0.0127 Uiso
C13 C 1.83960 1.31090 0.97600 0.0127 Uiso
C14 C 1.66040 1.18910 0.97600 0.0127 Uiso
C15 C 1.66040 1.31090 0.52400 0.0127 Uiso
C16 C 1.83960 1.18910 0.52400 0.0127 Uiso
C17 C 1.97600 1.83960 0.31090 0.0127 Uiso
C18 C 1.97600 1.66040 0.18910 0.0127 Uiso
C19 C 1.52400 1.66040 0.31090 0.0127 Uiso
C20 C 1.52400 1.83960 0.18910 0.0127 Uiso
C21 C 1.31090 1.97600 0.83960 0.0127 Uiso
C22 C 1.18910 1.97600 0.66040 0.0127 Uiso
C23 C 1.31090 1.52400 0.66040 0.0127 Uiso
C24 C 1.18910 1.52400 0.83960 0.0127 Uiso
C25 C 1.21420 1.75550 0.02430 0.0127 Uiso
C26 C 1.28580 1.74450 0.02430 0.0127 Uiso
C27 C 1.28580 1.75550 0.47570 0.0127 Uiso
C28 C 1.21420 1.74450 0.47570 0.0127 Uiso
C29 C 1.02430 1.21420 0.75550 0.0127 Uiso
C30 C 1.02430 1.28580 0.74450 0.0127 Uiso
C31 C 1.47570 1.28580 0.75550 0.0127 Uiso
C32 C 1.47570 1.21420 0.74450 0.0127 Uiso
C33 C 1.75550 1.02430 0.21420 0.0127 Uiso
C34 C 1.74450 1.02430 0.28580 0.0127 Uiso
C35 C 1.75550 1.47570 0.28580 0.0127 Uiso
C36 C 1.74450 1.47570 0.21420 0.0127 Uiso
C37 C 1.78580 1.24450 0.97570 0.0127 Uiso
C38 C 1.71420 1.25550 0.97570 0.0127 Uiso
C39 C 1.71420 1.24450 0.52430 0.0127 Uiso
C40 C 1.78580 1.25550 0.52430 0.0127 Uiso
C41 C 1.97570 1.78580 0.24450 0.0127 Uiso
C42 C 1.97570 1.71420 0.25550 0.0127 Uiso
C43 C 1.52430 1.71420 0.24450 0.0127 Uiso
C44 C 1.52430 1.78580 0.25550 0.0127 Uiso
C45 C 1.24450 1.97570 0.78580 0.0127 Uiso
C46 C 1.25550 1.97570 0.71420 0.0127 Uiso
C47 C 1.24450 1.52430 0.71420 0.0127 Uiso
C48 C 1.25550 1.52430 0.78580 0.0127 Uiso
H1 H 1.19550 1.80420 0.02440 0.0127 Uiso
H2 H 1.30450 1.69580 0.02440 0.0127 Uiso
H3 H 1.30450 1.80420 0.47560 0.0127 Uiso
H4 H 1.19550 1.69580 0.47560 0.0127 Uiso
H5 H 1.02440 1.19550 0.80420 0.0127 Uiso
H6 H 1.02440 1.30450 0.69580 0.0127 Uiso
H7 H 1.47560 1.30450 0.80420 0.0127 Uiso
H8 H 1.47560 1.19550 0.69580 0.0127 Uiso
H9 H 1.80420 1.02440 0.19550 0.0127 Uiso
H10 H 1.69580 1.02440 0.30450 0.0127 Uiso
H11 H 1.80420 1.47560 0.30450 0.0127 Uiso
H12 H 1.69580 1.47560 0.19550 0.0127 Uiso
H13 H 1.80450 1.19580 0.97560 0.0127 Uiso
H14 H 1.69550 1.30420 0.97560 0.0127 Uiso
H15 H 1.69550 1.19580 0.52440 0.0127 Uiso
H16 H 1.80450 1.30420 0.52440 0.0127 Uiso
H17 H 1.97560 1.80450 0.19580 0.0127 Uiso
H18 H 1.97560 1.69550 0.30420 0.0127 Uiso
H19 H 1.52440 1.69550 0.19580 0.0127 Uiso
H20 H 1.52440 1.80450 0.30420 0.0127 Uiso
H21 H 1.19580 1.97560 0.80450 0.0127 Uiso
H22 H 1.30420 1.97560 0.69550 0.0127 Uiso
H23 H 1.19580 1.52440 0.69550 0.0127 Uiso
H24 H 1.30420 1.52440 0.80450 0.0127 Uiso
C49 C 1.19060 1.33980 0.00000 0.0127 Uiso
C50 C 1.30940 1.16020 0.00000 0.0127 Uiso
C51 C 1.30940 1.33980 0.50000 0.0127 Uiso
C52 C 1.19060 1.16020 0.50000 0.0127 Uiso
C53 C 1.00000 1.19060 0.33980 0.0127 Uiso
C54 C 1.00000 1.30940 0.16020 0.0127 Uiso
C55 C 1.50000 1.30940 0.33980 0.0127 Uiso
C56 C 1.50000 1.19060 0.16020 0.0127 Uiso
C57 C 1.33980 1.00000 0.19060 0.0127 Uiso
C58 C 1.16020 1.00000 0.30940 0.0127 Uiso
C59 C 1.33980 1.50000 0.30940 0.0127 Uiso
C60 C 1.16020 1.50000 0.19060 0.0127 Uiso
C61 C 1.80940 1.66020 1.00000 0.0127 Uiso
C62 C 1.69060 1.83980 1.00000 0.0127 Uiso
C63 C 1.69060 1.66020 0.50000 0.0127 Uiso
C64 C 1.80940 1.83980 0.50000 0.0127 Uiso
C65 C 2.00000 1.80940 0.66020 0.0127 Uiso
C66 C 2.00000 1.69060 0.83980 0.0127 Uiso
C67 C 1.50000 1.69060 0.66020 0.0127 Uiso
C68 C 1.50000 1.80940 0.83980 0.0127 Uiso
C69 C 1.66020 2.00000 0.80940 0.0127 Uiso
C70 C 1.83980 2.00000 0.69060 0.0127 Uiso
C71 C 1.66020 1.50000 0.69060 0.0127 Uiso
C72 C 1.83980 1.50000 0.80940 0.0127 Uiso
C73 C 1.25670 1.28650 0.00010 0.0127 Uiso
C74 C 1.24330 1.21350 0.00010 0.0127 Uiso
C75 C 1.24330 1.28650 0.49990 0.0127 Uiso
C76 C 1.25670 1.21350 0.49990 0.0127 Uiso
C77 C 1.00010 1.25670 0.28650 0.0127 Uiso
C78 C 1.00010 1.24330 0.21350 0.0127 Uiso
C79 C 1.49990 1.24330 0.28650 0.0127 Uiso
C80 C 1.49990 1.25670 0.21350 0.0127 Uiso
C81 C 1.28650 1.00010 0.25670 0.0127 Uiso
C82 C 1.21350 1.00010 0.24330 0.0127 Uiso
C83 C 1.28650 1.49990 0.24330 0.0127 Uiso
C84 C 1.21350 1.49990 0.25670 0.0127 Uiso
C85 C 1.74330 1.71350 0.99990 0.0127 Uiso
C86 C 1.75670 1.78650 0.99990 0.0127 Uiso
C87 C 1.75670 1.71350 0.50010 0.0127 Uiso
C88 C 1.74330 1.78650 0.50010 0.0127 Uiso
C89 C 1.99990 1.74330 0.71350 0.0127 Uiso
C90 C 1.99990 1.75670 0.78650 0.0127 Uiso
C91 C 1.50010 1.75670 0.71350 0.0127 Uiso
C92 C 1.50010 1.74330 0.78650 0.0127 Uiso
C93 C 1.71350 1.99990 0.74330 0.0127 Uiso
C94 C 1.78650 1.99990 0.75670 0.0127 Uiso
C95 C 1.71350 1.50010 0.75670 0.0127 Uiso
C96 C 1.78650 1.50010 0.74330 0.0127 Uiso
H25 H 1.30560 1.30460 0.00010 0.0127 Uiso
H26 H 1.19440 1.19540 0.00010 0.0127 Uiso
H27 H 1.19440 1.30460 0.49990 0.0127 Uiso
H28 H 1.30560 1.19540 0.49990 0.0127 Uiso
H29 H 1.00010 1.30560 0.30460 0.0127 Uiso
H30 H 1.00010 1.19440 0.19540 0.0127 Uiso
H31 H 1.49990 1.19440 0.30460 0.0127 Uiso
H32 H 1.49990 1.30560 0.19540 0.0127 Uiso
H33 H 1.30460 1.00010 0.30560 0.0127 Uiso
H34 H 1.19540 1.00010 0.19440 0.0127 Uiso
H35 H 1.30460 1.49990 0.19440 0.0127 Uiso
H36 H 1.19540 1.49990 0.30560 0.0127 Uiso
H37 H 1.69440 1.69540 0.99990 0.0127 Uiso
H38 H 1.80560 1.80460 0.99990 0.0127 Uiso
H39 H 1.80560 1.69540 0.50010 0.0127 Uiso
H40 H 1.69440 1.80460 0.50010 0.0127 Uiso
H41 H 1.99990 1.69440 0.69540 0.0127 Uiso
H42 H 1.99990 1.80560 0.80460 0.0127 Uiso
H43 H 1.50010 1.80560 0.69540 0.0127 Uiso
H44 H 1.50010 1.69440 0.80460 0.0127 Uiso
H45 H 1.69540 1.99990 0.69440 0.0127 Uiso
H46 H 1.80460 1.99990 0.80560 0.0127 Uiso
H47 H 1.69540 1.50010 0.80560 0.0127 Uiso
H48 H 1.80460 1.50010 0.69440 0.0127 Uiso
O98 O 1.42350 1.90830 0.93530 0.0127 Uiso
O99 O 1.42350 1.59170 0.56470 0.0127 Uiso
O101 O 1.93530 1.07650 0.59170 0.0127 Uiso
O102 O 1.93530 1.42350 0.90830 0.0127 Uiso
O103 O 1.56470 1.42350 0.59170 0.0127 Uiso
O105 O 1.59170 1.93530 0.07650 0.0127 Uiso
O106 O 1.90830 1.93530 0.42350 0.0127 Uiso
O107 O 1.59170 1.56470 0.42350 0.0127 Uiso
O108 O 1.90830 1.56470 0.07650 0.0127 Uiso
O109 O 1.92350 1.40830 0.06470 0.0127 Uiso
O110 O 1.57650 1.09170 0.06470 0.0127 Uiso
O111 O 1.57650 1.40830 0.43530 0.0127 Uiso
O112 O 1.92350 1.09170 0.43530 0.0127 Uiso
O115 O 1.43530 1.57650 0.40830 0.0127 Uiso
O116 O 1.43530 1.92350 0.09170 0.0127 Uiso
O119 O 1.40830 1.43530 0.57650 0.0127 Uiso
O155 O 1.42150 1.42150 0.42150 0.0127 Uiso
O157 O 1.92150 1.57850 0.92150 0.0127 Uiso
O158 O 1.57850 1.92150 0.92150 0.0127 Uiso
O159 O 1.57850 1.57850 0.57850 0.0127 Uiso
O160 O 1.92150 1.92150 0.57850 0.0127 Uiso
Zr1 Zr 2.13785 1.51113 0.01188 0.0127 Uiso
Zr2 Zr 1.36215 1.98887 1.01188 0.0127 Uiso
Zr4 Zr 2.13785 1.98887 0.48812 0.0127 Uiso
Zr5 Zr 1.01188 2.13785 0.51113 0.0127 Uiso
Zr5 Zr 2.01188 1.13785 0.51113 0.0127 Uiso
Zr6 Zr 2.01188 1.36215 -0.01113 0.0127 Uiso
Zr6 Zr 2.01188 1.36215 0.98887 0.0127 Uiso
Zr8 Zr 1.48812 2.13785 -0.01113 0.0127 Uiso
Zr8 Zr 1.48812 2.13785 0.98887 0.0127 Uiso
Zr9 Zr 1.51113 2.01188 0.13785 0.0127 Uiso
Zr10 Zr 1.98887 2.01188 0.36215 0.0127 Uiso
Zr12 Zr 1.98887 1.48812 1.13785 0.0127 Uiso
Zr13 Zr 1.86215 1.48887 -0.01188 0.0127 Uiso
Zr14 Zr 1.63785 2.01113 -0.01188 0.0127 Uiso
Zr14 Zr 1.63785 2.01113 0.98812 0.0127 Uiso
Zr16 Zr 1.86215 2.01113 0.51188 0.0127 Uiso
Zr18 Zr 1.98812 1.63785 1.01113 0.0127 Uiso
Zr20 Zr 1.51188 1.86215 1.01113 0.0127 Uiso
Zr21 Zr 1.48887 1.98812 -0.13785 0.0127 Uiso
Zr22 Zr 2.01113 1.98812 0.63785 0.0127 Uiso
Zr24 Zr 2.01113 1.51188 -0.13785 0.0127 Uiso
Zr24 Zr 2.01113 1.51188 0.86215 0.0127 Uiso
O2 O 1.29100 2.09150 0.00800 0.0127 Uiso
O4 O 1.20900 2.09150 0.49200 0.0127 Uiso
O6 O 1.00800 1.29100 1.09150 0.0127 Uiso
O8 O 1.49200 1.20900 1.09150 0.0127 Uiso
O10 O 2.09150 1.00800 0.29100 0.0127 Uiso
O12 O 2.09150 1.49200 0.20900 0.0127 Uiso
O18 O 1.99200 1.70900 -0.09150 0.0127 Uiso
O20 O 1.50800 1.79100 -0.09150 0.0127 Uiso
O50 O 1.31040 1.99270 0.12630 0.0127 Uiso
O52 O 1.18960 1.99270 0.37370 0.0127 Uiso
O54 O 1.12630 1.31040 0.99270 0.0127 Uiso
O56 O 1.37370 1.18960 0.99270 0.0127 Uiso
O58 O 1.99270 1.12630 0.31040 0.0127 Uiso
O60 O 1.99270 1.37370 0.18960 0.0127 Uiso
O66 O 1.87370 1.68960 0.00730 0.0127 Uiso
O68 O 1.62630 1.81040 0.00730 0.0127 Uiso
O73 O 1.20880 1.52390 -0.09060 0.0127 Uiso
O74 O 1.29120 1.97610 -0.09060 0.0127 Uiso
O85 O 1.79120 1.47610 1.09060 0.0127 Uiso
O86 O 1.70880 1.02390 1.09060 0.0127 Uiso
O89 O 2.09060 1.79120 0.47610 0.0127 Uiso
O90 O 2.09060 1.70880 0.02390 0.0127 Uiso
O93 O 1.47610 2.09060 0.79120 0.0127 Uiso
O94 O 1.02390 2.09060 0.70880 0.0127 Uiso
O97 O 2.07650 1.59170 -0.06470 0.0127 Uiso
O98 O 1.42350 1.90830 -0.06470 0.0127 Uiso
O100 O 2.07650 1.90830 0.56470 0.0127 Uiso
O101 O 0.93530 2.07650 0.59170 0.0127 Uiso
O104 O 1.56470 2.07650 0.90830 0.0127 Uiso
O108 O 1.90830 1.56470 1.07650 0.0127 Uiso
O109 O 1.92350 1.40830 1.06470 0.0127 Uiso
O110 O 1.57650 1.09170 1.06470 0.0127 Uiso
O113 O 2.06470 1.92350 0.40830 0.0127 Uiso
O114 O 2.06470 1.57650 0.09170 0.0127 Uiso
O117 O 1.40830 2.06470 -0.07650 0.0127 Uiso
O117 O 1.40830 2.06470 0.92350 0.0127 Uiso
O118 O 1.09170 2.06470 0.57650 0.0127 Uiso
O120 O 1.09170 1.43530 -0.07650 0.0127 Uiso
O153 O 2.07850 1.42150 0.07850 0.0127 Uiso
O154 O 1.42150 2.07850 0.07850 0.0127 Uiso
O156 O 1.07850 2.07850 0.42150 0.0127 Uiso
O156 O 2.07850 1.07850 0.42150 0.0127 Uiso
O157 O 1.92150 1.57850 -0.07850 0.0127 Uiso
O158 O 1.57850 1.92150 -0.07850 0.0127 Uiso
Zr3 Zr 1.36215 1.51113 1.48812 0.0127 Uiso
Zr7 Zr 1.48812 1.36215 1.51113 0.0127 Uiso
Zr11 Zr 1.51113 1.48812 1.36215 0.0127 Uiso
Zr13 Zr 1.86215 1.48887 1.98812 0.0127 Uiso
Zr15 Zr 1.63785 1.48887 1.51188 0.0127 Uiso
Zr17 Zr 1.98812 1.86215 1.48887 0.0127 Uiso
Zr19 Zr 1.51188 1.63785 1.48887 0.0127 Uiso
Zr21 Zr 1.48887 1.98812 1.86215 0.0127 Uiso
Zr23 Zr 1.48887 1.51188 1.63785 0.0127 Uiso
O1 O 1.20900 1.40850 1.00800 0.0127 Uiso
O3 O 1.29100 1.40850 1.49200 0.0127 Uiso
O5 O 1.00800 1.20900 1.40850 0.0127 Uiso
O7 O 1.49200 1.29100 1.40850 0.0127 Uiso
O9 O 1.40850 1.00800 1.20900 0.0127 Uiso
O11 O 1.40850 1.49200 1.29100 0.0127 Uiso
O13 O 1.79100 1.59150 1.99200 0.0127 Uiso
O14 O 1.70900 1.90850 1.99200 0.0127 Uiso
O15 O 1.70900 1.59150 1.50800 0.0127 Uiso
O16 O 1.79100 1.90850 1.50800 0.0127 Uiso
O17 O 1.99200 1.79100 1.59150 0.0127 Uiso
O18 O 1.99200 1.70900 1.90850 0.0127 Uiso
O19 O 1.50800 1.70900 1.59150 0.0127 Uiso
O20 O 1.50800 1.79100 1.90850 0.0127 Uiso
O21 O 1.59150 1.99200 1.79100 0.0127 Uiso
O22 O 1.90850 1.99200 1.70900 0.0127 Uiso
O23 O 1.59150 1.50800 1.70900 0.0127 Uiso
O24 O 1.90850 1.50800 1.79100 0.0127 Uiso
O25 O 1.19040 1.62460 1.02460 0.0127 Uiso
O26 O 1.30960 1.87540 1.02460 0.0127 Uiso
O27 O 1.30960 1.62460 1.47540 0.0127 Uiso
O28 O 1.19040 1.87540 1.47540 0.0127 Uiso
O29 O 1.02460 1.19040 1.62460 0.0127 Uiso
O30 O 1.02460 1.30960 1.87540 0.0127 Uiso
O31 O 1.47540 1.30960 1.62460 0.0127 Uiso
O32 O 1.47540 1.19040 1.87540 0.0127 Uiso
O33 O 1.62460 1.02460 1.19040 0.0127 Uiso
O34 O 1.87540 1.02460 1.30960 0.0127 Uiso
O35 O 1.62460 1.47540 1.30960 0.0127 Uiso
O36 O 1.87540 1.47540 1.19040 0.0127 Uiso
O37 O 1.80960 1.37540 1.97540 0.0127 Uiso
O38 O 1.69040 1.12460 1.97540 0.0127 Uiso
O39 O 1.69040 1.37540 1.52460 0.0127 Uiso
O40 O 1.80960 1.12460 1.52460 0.0127 Uiso
O41 O 1.97540 1.80960 1.37540 0.0127 Uiso
O42 O 1.97540 1.69040 1.12460 0.0127 Uiso
O43 O 1.52460 1.69040 1.37540 0.0127 Uiso
O44 O 1.52460 1.80960 1.12460 0.0127 Uiso
O45 O 1.37540 1.97540 1.80960 0.0127 Uiso
O46 O 1.12460 1.97540 1.69040 0.0127 Uiso
O47 O 1.37540 1.52460 1.69040 0.0127 Uiso
O48 O 1.12460 1.52460 1.80960 0.0127 Uiso
O49 O 1.18960 1.50730 1.12630 0.0127 Uiso
O51 O 1.31040 1.50730 1.37370 0.0127 Uiso
O53 O 1.12630 1.18960 1.50730 0.0127 Uiso
O55 O 1.37370 1.31040 1.50730 0.0127 Uiso
O57 O 1.50730 1.12630 1.18960 0.0127 Uiso
O59 O 1.50730 1.37370 1.31040 0.0127 Uiso
O61 O 1.81040 1.49270 1.87370 0.0127 Uiso
O62 O 1.68960 2.00730 1.87370 0.0127 Uiso
O63 O 1.68960 1.49270 1.62630 0.0127 Uiso
O64 O 1.81040 2.00730 1.62630 0.0127 Uiso
O65 O 1.87370 1.81040 1.49270 0.0127 Uiso
O66 O 1.87370 1.68960 2.00730 0.0127 Uiso
O67 O 1.62630 1.68960 1.49270 0.0127 Uiso
O68 O 1.62630 1.81040 2.00730 0.0127 Uiso
O69 O 1.49270 1.87370 1.81040 0.0127 Uiso
O70 O 2.00730 1.87370 1.68960 0.0127 Uiso
O71 O 1.49270 1.62630 1.68960 0.0127 Uiso
O72 O 2.00730 1.62630 1.81040 0.0127 Uiso
O73 O 1.20880 1.52390 1.90940 0.0127 Uiso
O74 O 1.29120 1.97610 1.90940 0.0127 Uiso
O75 O 1.29120 1.52390 1.59060 0.0127 Uiso
O76 O 1.20880 1.97610 1.59060 0.0127 Uiso
O77 O 1.90940 1.20880 1.52390 0.0127 Uiso
O78 O 1.90940 1.29120 1.97610 0.0127 Uiso
O79 O 1.59060 1.29120 1.52390 0.0127 Uiso
O80 O 1.59060 1.20880 1.97610 0.0127 Uiso
O81 O 1.52390 1.90940 1.20880 0.0127 Uiso
O82 O 1.97610 1.90940 1.29120 0.0127 Uiso
O83 O 1.52390 1.59060 1.29120 0.0127 Uiso
O84 O 1.97610 1.59060 1.20880 0.0127 Uiso
O87 O 1.70880 1.47610 1.40940 0.0127 Uiso
O88 O 1.79120 1.02390 1.40940 0.0127 Uiso
O91 O 1.40940 1.70880 1.47610 0.0127 Uiso
O92 O 1.40940 1.79120 1.02390 0.0127 Uiso
O95 O 1.47610 1.40940 1.70880 0.0127 Uiso
O96 O 1.02390 1.40940 1.79120 0.0127 Uiso
C1 C 1.16040 1.68910 1.02400 0.0127 Uiso
C2 C 1.33960 1.81090 1.02400 0.0127 Uiso
C3 C 1.33960 1.68910 1.47600 0.0127 Uiso
C4 C 1.16040 1.81090 1.47600 0.0127 Uiso
C5 C 1.02400 1.16040 1.68910 0.0127 Uiso
C6 C 1.02400 1.33960 1.81090 0.0127 Uiso
C7 C 1.47600 1.33960 1.68910 0.0127 Uiso
C8 C 1.47600 1.16040 1.81090 0.0127 Uiso
C9 C 1.68910 1.02400 1.16040 0.0127 Uiso
C10 C 1.81090 1.02400 1.33960 0.0127 Uiso
C11 C 1.68910 1.47600 1.33960 0.0127 Uiso
C12 C 1.81090 1.47600 1.16040 0.0127 Uiso
C13 C 1.83960 1.31090 1.97600 0.0127 Uiso
C14 C 1.66040 1.18910 1.97600 0.0127 Uiso
C15 C 1.66040 1.31090 1.52400 0.0127 Uiso
C16 C 1.83960 1.18910 1.52400 0.0127 Uiso
C17 C 1.97600 1.83960 1.31090 0.0127 Uiso
C18 C 1.97600 1.66040 1.18910 0.0127 Uiso
C19 C 1.52400 1.66040 1.31090 0.0127 Uiso
C20 C 1.52400 1.83960 1.18910 0.0127 Uiso
C21 C 1.31090 1.97600 1.83960 0.0127 Uiso
C22 C 1.18910 1.97600 1.66040 0.0127 Uiso
C23 C 1.31090 1.52400 1.66040 0.0127 Uiso
C24 C 1.18910 1.52400 1.83960 0.0127 Uiso
C25 C 1.21420 1.75550 1.02430 0.0127 Uiso
C26 C 1.28580 1.74450 1.02430 0.0127 Uiso
C27 C 1.28580 1.75550 1.47570 0.0127 Uiso
C28 C 1.21420 1.74450 1.47570 0.0127 Uiso
C29 C 1.02430 1.21420 1.75550 0.0127 Uiso
C30 C 1.02430 1.28580 1.74450 0.0127 Uiso
C31 C 1.47570 1.28580 1.75550 0.0127 Uiso
C32 C 1.47570 1.21420 1.74450 0.0127 Uiso
C33 C 1.75550 1.02430 1.21420 0.0127 Uiso
C34 C 1.74450 1.02430 1.28580 0.0127 Uiso
C35 C 1.75550 1.47570 1.28580 0.0127 Uiso
C36 C 1.74450 1.47570 1.21420 0.0127 Uiso
C37 C 1.78580 1.24450 1.97570 0.0127 Uiso
C38 C 1.71420 1.25550 1.97570 0.0127 Uiso
C39 C 1.71420 1.24450 1.52430 0.0127 Uiso
C40 C 1.78580 1.25550 1.52430 0.0127 Uiso
C41 C 1.97570 1.78580 1.24450 0.0127 Uiso
C42 C 1.97570 1.71420 1.25550 0.0127 Uiso
C43 C 1.52430 1.71420 1.24450 0.0127 Uiso
C44 C 1.52430 1.78580 1.25550 0.0127 Uiso
C45 C 1.24450 1.97570 1.78580 0.0127 Uiso
C46 C 1.25550 1.97570 1.71420 0.0127 Uiso
C47 C 1.24450 1.52430 1.71420 0.0127 Uiso
C48 C 1.25550 1.52430 1.78580 0.0127 Uiso
H1 H 1.19550 1.80420 1.02440 0.0127 Uiso
H2 H 1.30450 1.69580 1.02440 0.0127 Uiso
H3 H 1.30450 1.80420 1.47560 0.0127 Uiso
H4 H 1.19550 1.69580 1.47560 0.0127 Uiso
H5 H 1.02440 1.19550 1.80420 0.0127 Uiso
H6 H 1.02440 1.30450 1.69580 0.0127 Uiso
H7 H 1.47560 1.30450 1.80420 0.0127 Uiso
H8 H 1.47560 1.19550 1.69580 0.0127 Uiso
H9 H 1.80420 1.02440 1.19550 0.0127 Uiso
H10 H 1.69580 1.02440 1.30450 0.0127 Uiso
H11 H 1.80420 1.47560 1.30450 0.0127 Uiso
H12 H 1.69580 1.47560 1.19550 0.0127 Uiso
H13 H 1.80450 1.19580 1.97560 0.0127 Uiso
H14 H 1.69550 1.30420 1.97560 0.0127 Uiso
H15 H 1.69550 1.19580 1.52440 0.0127 Uiso
H16 H 1.80450 1.30420 1.52440 0.0127 Uiso
H17 H 1.97560 1.80450 1.19580 0.0127 Uiso
H18 H 1.97560 1.69550 1.30420 0.0127 Uiso
H19 H 1.52440 1.69550 1.19580 0.0127 Uiso
H20 H 1.52440 1.80450 1.30420 0.0127 Uiso
H21 H 1.19580 1.97560 1.80450 0.0127 Uiso
H22 H 1.30420 1.97560 1.69550 0.0127 Uiso
H23 H 1.19580 1.52440 1.69550 0.0127 Uiso
H24 H 1.30420 1.52440 1.80450 0.0127 Uiso
C49 C 1.19060 1.33980 1.00000 0.0127 Uiso
C50 C 1.30940 1.16020 1.00000 0.0127 Uiso
C51 C 1.30940 1.33980 1.50000 0.0127 Uiso
C52 C 1.19060 1.16020 1.50000 0.0127 Uiso
C53 C 1.00000 1.19060 1.33980 0.0127 Uiso
C54 C 1.00000 1.30940 1.16020 0.0127 Uiso
C55 C 1.50000 1.30940 1.33980 0.0127 Uiso
C56 C 1.50000 1.19060 1.16020 0.0127 Uiso
C57 C 1.33980 1.00000 1.19060 0.0127 Uiso
C58 C 1.16020 1.00000 1.30940 0.0127 Uiso
C59 C 1.33980 1.50000 1.30940 0.0127 Uiso
C60 C 1.16020 1.50000 1.19060 0.0127 Uiso
C61 C 1.80940 1.66020 2.00000 0.0127 Uiso
C62 C 1.69060 1.83980 2.00000 0.0127 Uiso
C63 C 1.69060 1.66020 1.50000 0.0127 Uiso
C64 C 1.80940 1.83980 1.50000 0.0127 Uiso
C65 C 2.00000 1.80940 1.66020 0.0127 Uiso
C66 C 2.00000 1.69060 1.83980 0.0127 Uiso
C67 C 1.50000 1.69060 1.66020 0.0127 Uiso
C68 C 1.50000 1.80940 1.83980 0.0127 Uiso
C69 C 1.66020 2.00000 1.80940 0.0127 Uiso
C70 C 1.83980 2.00000 1.69060 0.0127 Uiso
C71 C 1.66020 1.50000 1.69060 0.0127 Uiso
C72 C 1.83980 1.50000 1.80940 0.0127 Uiso
C73 C 1.25670 1.28650 1.00010 0.0127 Uiso
C74 C 1.24330 1.21350 1.00010 0.0127 Uiso
C75 C 1.24330 1.28650 1.49990 0.0127 Uiso
C76 C 1.25670 1.21350 1.49990 0.0127 Uiso
C77 C 1.00010 1.25670 1.28650 0.0127 Uiso
C78 C 1.00010 1.24330 1.21350 0.0127 Uiso
C79 C 1.49990 1.24330 1.28650 0.0127 Uiso
C80 C 1.49990 1.25670 1.21350 0.0127 Uiso
C81 C 1.28650 1.00010 1.25670 0.0127 Uiso
C82 C 1.21350 1.00010 1.24330 0.0127 Uiso
C83 C 1.28650 1.49990 1.24330 0.0127 Uiso
C84 C 1.21350 1.49990 1.25670 0.0127 Uiso
C85 C 1.74330 1.71350 1.99990 0.0127 Uiso
C86 C 1.75670 1.78650 1.99990 0.0127 Uiso
C87 C 1.75670 1.71350 1.50010 0.0127 Uiso
C88 C 1.74330 1.78650 1.50010 0.0127 Uiso
C89 C 1.99990 1.74330 1.71350 0.0127 Uiso
C90 C 1.99990 1.75670 1.78650 0.0127 Uiso
C91 C 1.50010 1.75670 1.71350 0.0127 Uiso
C92 C 1.50010 1.74330 1.78650 0.0127 Uiso
C93 C 1.71350 1.99990 1.74330 0.0127 Uiso
C94 C 1.78650 1.99990 1.75670 0.0127 Uiso
C95 C 1.71350 1.50010 1.75670 0.0127 Uiso
C96 C 1.78650 1.50010 1.74330 0.0127 Uiso
H25 H 1.30560 1.30460 1.00010 0.0127 Uiso
H26 H 1.19440 1.19540 1.00010 0.0127 Uiso
H27 H 1.19440 1.30460 1.49990 0.0127 Uiso
H28 H 1.30560 1.19540 1.49990 0.0127 Uiso
H29 H 1.00010 1.30560 1.30460 0.0127 Uiso
H30 H 1.00010 1.19440 1.19540 0.0127 Uiso
H31 H 1.49990 1.19440 1.30460 0.0127 Uiso
H32 H 1.49990 1.30560 1.19540 0.0127 Uiso
H33 H 1.30460 1.00010 1.30560 0.0127 Uiso
H34 H 1.19540 1.00010 1.19440 0.0127 Uiso
H35 H 1.30460 1.49990 1.19440 0.0127 Uiso
H36 H 1.19540 1.49990 1.30560 0.0127 Uiso
H37 H 1.69440 1.69540 1.99990 0.0127 Uiso
H38 H 1.80560 1.80460 1.99990 0.0127 Uiso
H39 H 1.80560 1.69540 1.50010 0.0127 Uiso
H40 H 1.69440 1.80460 1.50010 0.0127 Uiso
H41 H 1.99990 1.69440 1.69540 0.0127 Uiso
H42 H 1.99990 1.80560 1.80460 0.0127 Uiso
H43 H 1.50010 1.80560 1.69540 0.0127 Uiso
H44 H 1.50010 1.69440 1.80460 0.0127 Uiso
H45 H 1.69540 1.99990 1.69440 0.0127 Uiso
H46 H 1.80460 1.99990 1.80560 0.0127 Uiso
H47 H 1.69540 1.50010 1.80560 0.0127 Uiso
H48 H 1.80460 1.50010 1.69440 0.0127 Uiso
O97 O 1.07650 1.59170 1.93530 0.0127 Uiso
O98 O 1.42350 1.90830 1.93530 0.0127 Uiso
O99 O 1.42350 1.59170 1.56470 0.0127 Uiso
O101 O 1.93530 1.07650 1.59170 0.0127 Uiso
O102 O 1.93530 1.42350 1.90830 0.0127 Uiso
O103 O 1.56470 1.42350 1.59170 0.0127 Uiso
O105 O 1.59170 1.93530 1.07650 0.0127 Uiso
O106 O 1.90830 1.93530 1.42350 0.0127 Uiso
O107 O 1.59170 1.56470 1.42350 0.0127 Uiso
O111 O 1.57650 1.40830 1.43530 0.0127 Uiso
O112 O 1.92350 1.09170 1.43530 0.0127 Uiso
O115 O 1.43530 1.57650 1.40830 0.0127 Uiso
O116 O 1.43530 1.92350 1.09170 0.0127 Uiso
O119 O 1.40830 1.43530 1.57650 0.0127 Uiso
O155 O 1.42150 1.42150 1.42150 0.0127 Uiso
O157 O 1.92150 1.57850 1.92150 0.0127 Uiso
O158 O 1.57850 1.92150 1.92150 0.0127 Uiso
O159 O 1.57850 1.57850 1.57850 0.0127 Uiso
O160 O 1.92150 1.92150 1.57850 0.0127 Uiso
Zr1 Zr 1.13785 1.51113 2.01188 0.0127 Uiso
Zr1 Zr 2.13785 1.51113 1.01188 0.0127 Uiso
Zr2 Zr 1.36215 1.98887 2.01188 0.0127 Uiso
Zr4 Zr 2.13785 1.98887 1.48812 0.0127 Uiso
Zr5 Zr 1.01188 2.13785 1.51113 0.0127 Uiso
Zr5 Zr 2.01188 1.13785 1.51113 0.0127 Uiso
Zr6 Zr 2.01188 1.36215 1.98887 0.0127 Uiso
Zr8 Zr 1.48812 2.13785 1.98887 0.0127 Uiso
Zr9 Zr 1.51113 1.01188 2.13785 0.0127 Uiso
Zr9 Zr 1.51113 2.01188 1.13785 0.0127 Uiso
Zr10 Zr 1.98887 2.01188 1.36215 0.0127 Uiso
Zr12 Zr 1.98887 1.48812 2.13785 0.0127 Uiso
Zr14 Zr 1.63785 2.01113 1.98812 0.0127 Uiso
Zr16 Zr 1.86215 2.01113 1.51188 0.0127 Uiso
Zr18 Zr 1.98812 1.63785 2.01113 0.0127 Uiso
Zr20 Zr 1.51188 1.86215 2.01113 0.0127 Uiso
Zr22 Zr 2.01113 1.98812 1.63785 0.0127 Uiso
Zr24 Zr 2.01113 1.51188 1.86215 0.0127 Uiso
O2 O 1.29100 2.09150 1.00800 0.0127 Uiso
O4 O 1.20900 2.09150 1.49200 0.0127 Uiso
O6 O 1.00800 1.29100 2.09150 0.0127 Uiso
O8 O 1.49200 1.20900 2.09150 0.0127 Uiso
O10 O 2.09150 1.00800 1.29100 0.0127 Uiso
O12 O 2.09150 1.49200 1.20900 0.0127 Uiso
O50 O 1.31040 1.99270 1.12630 0.0127 Uiso
O52 O 1.18960 1.99270 1.37370 0.0127 Uiso
O54 O 1.12630 1.31040 1.99270 0.0127 Uiso
O56 O 1.37370 1.18960 1.99270 0.0127 Uiso
O58 O 1.99270 1.12630 1.31040 0.0127 Uiso
O60 O 1.99270 1.37370 1.18960 0.0127 Uiso
O85 O 1.79120 1.47610 2.09060 0.0127 Uiso
O86 O 1.70880 1.02390 2.09060 0.0127 Uiso
O89 O 2.09060 1.79120 1.47610 0.0127 Uiso
O90 O 2.09060 1.70880 1.02390 0.0127 Uiso
O93 O 1.47610 2.09060 1.79120 0.0127 Uiso
O94 O 1.02390 2.09060 1.70880 0.0127 Uiso
O97 O 2.07650 1.59170 0.93530 0.0127 Uiso
O100 O 2.07650 1.90830 1.56470 0.0127 Uiso
O101 O 0.93530 2.07650 1.59170 0.0127 Uiso
O104 O 1.56470 2.07650 1.90830 0.0127 Uiso
O105 O 1.59170 0.93530 2.07650 0.0127 Uiso
O108 O 1.90830 1.56470 2.07650 0.0127 Uiso
O109 O 1.92350 1.40830 2.06470 0.0127 Uiso
O110 O 1.57650 1.09170 2.06470 0.0127 Uiso
O113 O 2.06470 1.92350 1.40830 0.0127 Uiso
O114 O 2.06470 1.57650 1.09170 0.0127 Uiso
O117 O 1.40830 2.06470 1.92350 0.0127 Uiso
O118 O 1.09170 2.06470 1.57650 0.0127 Uiso
O120 O 1.09170 1.43530 0.92350 0.0127 Uiso
O153 O 1.07850 1.42150 2.07850 0.0127 Uiso
O153 O 2.07850 1.42150 1.07850 0.0127 Uiso
O154 O 1.42150 1.07850 2.07850 0.0127 Uiso
O154 O 1.42150 2.07850 1.07850 0.0127 Uiso
O156 O 1.07850 2.07850 1.42150 0.0127 Uiso
O156 O 2.07850 1.07850 1.42150 0.0127 Uiso

#END
