@<TRIPOS>MOLECULE
image0
 10188 19044     1     0     0
SMALL
NO_CHARGES
****
Generated from the CSD

@<TRIPOS>ATOM
     1 Zr1      2.4585   9.1159   0.2119   Zr        1 RES1   0.0000
     2 Zr2      6.4589  17.6363   0.2119   Zr        1 RES1   0.0000
     3 Zr3      6.4589   9.1159   8.7055   Zr        1 RES1   0.0000
     4 Zr4      2.4585  17.6363   8.7055   Zr        1 RES1   0.0000
     5 Zr5      0.2119   2.4585   9.1159   Zr        1 RES1   0.0000
     6 Zr6      0.2119   6.4589  17.6363   Zr        1 RES1   0.0000
     7 Zr7      8.7055   6.4589   9.1159   Zr        1 RES1   0.0000
     8 Zr8      8.7055   2.4585  17.6363   Zr        1 RES1   0.0000
     9 Zr9      9.1159   0.2119   2.4585   Zr        1 RES1   0.0000
    10 Zr10    17.6363   0.2119   6.4589   Zr        1 RES1   0.0000
    11 Zr11     9.1159   8.7055   6.4589   Zr        1 RES1   0.0000
    12 Zr12    17.6363   8.7055   2.4585   Zr        1 RES1   0.0000
    13 Zr13    15.3763   8.7189  17.6229   Zr        1 RES1   0.0000
    14 Zr14    11.3759   0.1985  17.6229   Zr        1 RES1   0.0000
    15 Zr15    11.3759   8.7189   9.1293   Zr        1 RES1   0.0000
    16 Zr16    15.3763   0.1985   9.1293   Zr        1 RES1   0.0000
    17 Zr17    17.6229  15.3763   8.7189   Zr        1 RES1   0.0000
    18 Zr18    17.6229  11.3759   0.1985   Zr        1 RES1   0.0000
    19 Zr19     9.1293  11.3759   8.7189   Zr        1 RES1   0.0000
    20 Zr20     9.1293  15.3763   0.1985   Zr        1 RES1   0.0000
    21 Zr21     8.7189  17.6229  15.3763   Zr        1 RES1   0.0000
    22 Zr22     0.1985  17.6229  11.3759   Zr        1 RES1   0.0000
    23 Zr23     8.7189   9.1293  11.3759   Zr        1 RES1   0.0000
    24 Zr24     0.1985   9.1293  15.3763   Zr        1 RES1   0.0000
    25 O1       3.7275   7.2855   0.1427   O.co2     1 RES1   0.0000
    26 O2       5.1899   1.6319   0.1427   O.co2     1 RES1   0.0000
    27 O3       5.1899   7.2855   8.7747   O.co2     1 RES1   0.0000
    28 O4       3.7275   1.6319   8.7747   O.co2     1 RES1   0.0000
    29 O5       0.1427   3.7275   7.2855   O.co2     1 RES1   0.0000
    30 O6       0.1427   5.1899   1.6319   O.co2     1 RES1   0.0000
    31 O7       8.7747   5.1899   7.2855   O.co2     1 RES1   0.0000
    32 O8       8.7747   3.7275   1.6319   O.co2     1 RES1   0.0000
    33 O9       7.2855   0.1427   3.7275   O.co2     1 RES1   0.0000
    34 O10      1.6319   0.1427   5.1899   O.co2     1 RES1   0.0000
    35 O11      7.2855   8.7747   5.1899   O.co2     1 RES1   0.0000
    36 O12      1.6319   8.7747   3.7275   O.co2     1 RES1   0.0000
    37 O13     14.1073  10.5493  17.6921   O.co2     1 RES1   0.0000
    38 O14     12.6449  16.2029  17.6921   O.co2     1 RES1   0.0000
    39 O15     12.6449  10.5493   9.0601   O.co2     1 RES1   0.0000
    40 O16     14.1073  16.2029   9.0601   O.co2     1 RES1   0.0000
    41 O17     17.6921  14.1073  10.5493   O.co2     1 RES1   0.0000
    42 O18     17.6921  12.6449  16.2029   O.co2     1 RES1   0.0000
    43 O19      9.0601  12.6449  10.5493   O.co2     1 RES1   0.0000
    44 O20      9.0601  14.1073  16.2029   O.co2     1 RES1   0.0000
    45 O21     10.5493  17.6921  14.1073   O.co2     1 RES1   0.0000
    46 O22     16.2029  17.6921  12.6449   O.co2     1 RES1   0.0000
    47 O23     10.5493   9.0601  12.6449   O.co2     1 RES1   0.0000
    48 O24     16.2029   9.0601  14.1073   O.co2     1 RES1   0.0000
    49 O25      3.3957  11.1396   0.4387   O.co2     1 RES1   0.0000
    50 O26      5.5217  15.6126   0.4387   O.co2     1 RES1   0.0000
    51 O27      5.5217  11.1396   8.4787   O.co2     1 RES1   0.0000
    52 O28      3.3957  15.6126   8.4787   O.co2     1 RES1   0.0000
    53 O29      0.4387   3.3957  11.1396   O.co2     1 RES1   0.0000
    54 O30      0.4387   5.5217  15.6126   O.co2     1 RES1   0.0000
    55 O31      8.4787   5.5217  11.1396   O.co2     1 RES1   0.0000
    56 O32      8.4787   3.3957  15.6126   O.co2     1 RES1   0.0000
    57 O33     11.1396   0.4387   3.3957   O.co2     1 RES1   0.0000
    58 O34     15.6126   0.4387   5.5217   O.co2     1 RES1   0.0000
    59 O35     11.1396   8.4787   5.5217   O.co2     1 RES1   0.0000
    60 O36     15.6126   8.4787   3.3957   O.co2     1 RES1   0.0000
    61 O37     14.4391   6.6952  17.3961   O.co2     1 RES1   0.0000
    62 O38     12.3131   2.2222  17.3961   O.co2     1 RES1   0.0000
    63 O39     12.3131   6.6952   9.3561   O.co2     1 RES1   0.0000
    64 O40     14.4391   2.2222   9.3561   O.co2     1 RES1   0.0000
    65 O41     17.3961  14.4391   6.6952   O.co2     1 RES1   0.0000
    66 O42     17.3961  12.3131   2.2222   O.co2     1 RES1   0.0000
    67 O43      9.3561  12.3131   6.6952   O.co2     1 RES1   0.0000
    68 O44      9.3561  14.4391   2.2222   O.co2     1 RES1   0.0000
    69 O45      6.6952  17.3961  14.4391   O.co2     1 RES1   0.0000
    70 O46      2.2222  17.3961  12.3131   O.co2     1 RES1   0.0000
    71 O47      6.6952   9.3561  12.3131   O.co2     1 RES1   0.0000
    72 O48      2.2222   9.3561  14.4391   O.co2     1 RES1   0.0000
    73 O49      3.3815   9.0476   2.2525   O.co2     1 RES1   0.0000
    74 O50      5.5359  -0.1302   2.2525   O.co2     1 RES1   0.0000
    75 O51      5.5359   9.0476   6.6649   O.co2     1 RES1   0.0000
    76 O52      3.3815  -0.1302   6.6649   O.co2     1 RES1   0.0000
    77 O53      2.2525   3.3815   9.0476   O.co2     1 RES1   0.0000
    78 O54      2.2525   5.5359  -0.1302   O.co2     1 RES1   0.0000
    79 O55      6.6649   5.5359   9.0476   O.co2     1 RES1   0.0000
    80 O56      6.6649   3.3815  -0.1302   O.co2     1 RES1   0.0000
    81 O57      9.0476   2.2525   3.3815   O.co2     1 RES1   0.0000
    82 O58     -0.1302   2.2525   5.5359   O.co2     1 RES1   0.0000
    83 O59      9.0476   6.6649   5.5359   O.co2     1 RES1   0.0000
    84 O60     -0.1302   6.6649   3.3815   O.co2     1 RES1   0.0000
    85 O61     14.4533   8.7872  15.5823   O.co2     1 RES1   0.0000
    86 O62     12.2989  17.9650  15.5823   O.co2     1 RES1   0.0000
    87 O63     12.2989   8.7872  11.1699   O.co2     1 RES1   0.0000
    88 O64     14.4533  17.9650  11.1699   O.co2     1 RES1   0.0000
    89 O65     15.5823  14.4533   8.7872   O.co2     1 RES1   0.0000
    90 O66     15.5823  12.2989  17.9650   O.co2     1 RES1   0.0000
    91 O67     11.1699  12.2989   8.7872   O.co2     1 RES1   0.0000
    92 O68     11.1699  14.4533  17.9650   O.co2     1 RES1   0.0000
    93 O69      8.7872  15.5823  14.4533   O.co2     1 RES1   0.0000
    94 O70     17.9650  15.5823  12.2989   O.co2     1 RES1   0.0000
    95 O71      8.7872  11.1699  12.2989   O.co2     1 RES1   0.0000
    96 O72     17.9650  11.1699  14.4533   O.co2     1 RES1   0.0000
    97 O73      3.7239   9.3437  16.2190   O.co2     1 RES1   0.0000
    98 O74      5.1935  17.4085  16.2190   O.co2     1 RES1   0.0000
    99 O75      5.1935   9.3437  10.5332   O.co2     1 RES1   0.0000
   100 O76      3.7239  17.4085  10.5332   O.co2     1 RES1   0.0000
   101 O77     16.2190   3.7239   9.3437   O.co2     1 RES1   0.0000
   102 O78     16.2190   5.1935  17.4085   O.co2     1 RES1   0.0000
   103 O79     10.5332   5.1935   9.3437   O.co2     1 RES1   0.0000
   104 O80     10.5332   3.7239  17.4085   O.co2     1 RES1   0.0000
   105 O81      9.3437  16.2190   3.7239   O.co2     1 RES1   0.0000
   106 O82     17.4085  16.2190   5.1935   O.co2     1 RES1   0.0000
   107 O83      9.3437  10.5332   5.1935   O.co2     1 RES1   0.0000
   108 O84     17.4085  10.5332   3.7239   O.co2     1 RES1   0.0000
   109 O85     14.1109   8.4911   1.6158   O.co2     1 RES1   0.0000
   110 O86     12.6413   0.4263   1.6158   O.co2     1 RES1   0.0000
   111 O87     12.6413   8.4911   7.3016   O.co2     1 RES1   0.0000
   112 O88     14.1109   0.4263   7.3016   O.co2     1 RES1   0.0000
   113 O89      1.6158  14.1109   8.4911   O.co2     1 RES1   0.0000
   114 O90      1.6158  12.6413   0.4263   O.co2     1 RES1   0.0000
   115 O91      7.3016  12.6413   8.4911   O.co2     1 RES1   0.0000
   116 O92      7.3016  14.1109   0.4263   O.co2     1 RES1   0.0000
   117 O93      8.4911   1.6158  14.1109   O.co2     1 RES1   0.0000
   118 O94      0.4263   1.6158  12.6413   O.co2     1 RES1   0.0000
   119 O95      8.4911   7.3016  12.6413   O.co2     1 RES1   0.0000
   120 O96      0.4263   7.3016  14.1109   O.co2     1 RES1   0.0000
   121 C1       2.8607  12.2900   0.4280   C.2       1 RES1   0.0000
   122 C2       6.0567  14.4622   0.4280   C.2       1 RES1   0.0000
   123 C3       6.0567  12.2900   8.4894   C.2       1 RES1   0.0000
   124 C4       2.8607  14.4622   8.4894   C.2       1 RES1   0.0000
   125 C5       0.4280   2.8607  12.2900   C.2       1 RES1   0.0000
   126 C6       0.4280   6.0567  14.4622   C.2       1 RES1   0.0000
   127 C7       8.4894   6.0567  12.2900   C.2       1 RES1   0.0000
   128 C8       8.4894   2.8607  14.4622   C.2       1 RES1   0.0000
   129 C9      12.2900   0.4280   2.8607   C.2       1 RES1   0.0000
   130 C10     14.4622   0.4280   6.0567   C.2       1 RES1   0.0000
   131 C11     12.2900   8.4894   6.0567   C.2       1 RES1   0.0000
   132 C12     14.4622   8.4894   2.8607   C.2       1 RES1   0.0000
   133 C13     14.9741   5.5448  17.4068   C.2       1 RES1   0.0000
   134 C14     11.7781   3.3726  17.4068   C.2       1 RES1   0.0000
   135 C15     11.7781   5.5448   9.3454   C.2       1 RES1   0.0000
   136 C16     14.9741   3.3726   9.3454   C.2       1 RES1   0.0000
   137 C17     17.4068  14.9741   5.5448   C.2       1 RES1   0.0000
   138 C18     17.4068  11.7781   3.3726   C.2       1 RES1   0.0000
   139 C19      9.3454  11.7781   5.5448   C.2       1 RES1   0.0000
   140 C20      9.3454  14.9741   3.3726   C.2       1 RES1   0.0000
   141 C21      5.5448  17.4068  14.9741   C.2       1 RES1   0.0000
   142 C22      3.3726  17.4068  11.7781   C.2       1 RES1   0.0000
   143 C23      5.5448   9.3454  11.7781   C.2       1 RES1   0.0000
   144 C24      3.3726   9.3454  14.9741   C.2       1 RES1   0.0000
   145 C25      3.8202  13.4742   0.4334   C.2       1 RES1   0.0000
   146 C26      5.0972  13.2780   0.4334   C.2       1 RES1   0.0000
   147 C27      5.0972  13.4742   8.4840   C.2       1 RES1   0.0000
   148 C28      3.8202  13.2780   8.4840   C.2       1 RES1   0.0000
   149 C29      0.4334   3.8202  13.4742   C.2       1 RES1   0.0000
   150 C30      0.4334   5.0972  13.2780   C.2       1 RES1   0.0000
   151 C31      8.4840   5.0972  13.4742   C.2       1 RES1   0.0000
   152 C32      8.4840   3.8202  13.2780   C.2       1 RES1   0.0000
   153 C33     13.4742   0.4334   3.8202   C.2       1 RES1   0.0000
   154 C34     13.2780   0.4334   5.0972   C.2       1 RES1   0.0000
   155 C35     13.4742   8.4840   5.0972   C.2       1 RES1   0.0000
   156 C36     13.2780   8.4840   3.8202   C.2       1 RES1   0.0000
   157 C37     14.0146   4.3606  17.4014   C.2       1 RES1   0.0000
   158 C38     12.7376   4.5568  17.4014   C.2       1 RES1   0.0000
   159 C39     12.7376   4.3606   9.3508   C.2       1 RES1   0.0000
   160 C40     14.0146   4.5568   9.3508   C.2       1 RES1   0.0000
   161 C41     17.4014  14.0146   4.3606   C.2       1 RES1   0.0000
   162 C42     17.4014  12.7376   4.5568   C.2       1 RES1   0.0000
   163 C43      9.3508  12.7376   4.3606   C.2       1 RES1   0.0000
   164 C44      9.3508  14.0146   4.5568   C.2       1 RES1   0.0000
   165 C45      4.3606  17.4014  14.0146   C.2       1 RES1   0.0000
   166 C46      4.5568  17.4014  12.7376   C.2       1 RES1   0.0000
   167 C47      4.3606   9.3508  12.7376   C.2       1 RES1   0.0000
   168 C48      4.5568   9.3508  14.0146   C.2       1 RES1   0.0000
   169 H1       3.4867  14.3427   0.4352   H         1 RES1   0.0000
   170 H2       5.4307  12.4095   0.4352   H         1 RES1   0.0000
   171 H3       5.4307  14.3427   8.4822   H         1 RES1   0.0000
   172 H4       3.4867  12.4095   8.4822   H         1 RES1   0.0000
   173 H5       0.4352   3.4867  14.3427   H         1 RES1   0.0000
   174 H6       0.4352   5.4307  12.4095   H         1 RES1   0.0000
   175 H7       8.4822   5.4307  14.3427   H         1 RES1   0.0000
   176 H8       8.4822   3.4867  12.4095   H         1 RES1   0.0000
   177 H9      14.3427   0.4352   3.4867   H         1 RES1   0.0000
   178 H10     12.4095   0.4352   5.4307   H         1 RES1   0.0000
   179 H11     14.3427   8.4822   5.4307   H         1 RES1   0.0000
   180 H12     12.4095   8.4822   3.4867   H         1 RES1   0.0000
   181 H13     14.3481   3.4921  17.3996   H         1 RES1   0.0000
   182 H14     12.4041   5.4253  17.3996   H         1 RES1   0.0000
   183 H15     12.4041   3.4921   9.3526   H         1 RES1   0.0000
   184 H16     14.3481   5.4253   9.3526   H         1 RES1   0.0000
   185 H17     17.3996  14.3481   3.4921   H         1 RES1   0.0000
   186 H18     17.3996  12.4041   5.4253   H         1 RES1   0.0000
   187 H19      9.3526  12.4041   3.4921   H         1 RES1   0.0000
   188 H20      9.3526  14.3481   5.4253   H         1 RES1   0.0000
   189 H21      3.4921  17.3996  14.3481   H         1 RES1   0.0000
   190 H22      5.4253  17.3996  12.4041   H         1 RES1   0.0000
   191 H23      3.4921   9.3526  12.4041   H         1 RES1   0.0000
   192 H24      5.4253   9.3526  14.3481   H         1 RES1   0.0000
   193 C49      3.3993   6.0603   0.0000   C.2       1 RES1   0.0000
   194 C50      5.5181   2.8571   0.0000   C.2       1 RES1   0.0000
   195 C51      5.5181   6.0603   8.9174   C.2       1 RES1   0.0000
   196 C52      3.3993   2.8571   8.9174   C.2       1 RES1   0.0000
   197 C53      0.0000   3.3993   6.0603   C.2       1 RES1   0.0000
   198 C54      0.0000   5.5181   2.8571   C.2       1 RES1   0.0000
   199 C55      8.9174   5.5181   6.0603   C.2       1 RES1   0.0000
   200 C56      8.9174   3.3993   2.8571   C.2       1 RES1   0.0000
   201 C57      6.0603   0.0000   3.3993   C.2       1 RES1   0.0000
   202 C58      2.8571   0.0000   5.5181   C.2       1 RES1   0.0000
   203 C59      6.0603   8.9174   5.5181   C.2       1 RES1   0.0000
   204 C60      2.8571   8.9174   3.3993   C.2       1 RES1   0.0000
   205 C61     14.4355  11.7745  17.8348   C.2       1 RES1   0.0000
   206 C62     12.3167  14.9777  17.8348   C.2       1 RES1   0.0000
   207 C63     12.3167  11.7745   8.9174   C.2       1 RES1   0.0000
   208 C64     14.4355  14.9777   8.9174   C.2       1 RES1   0.0000
   209 C65     17.8348  14.4355  11.7745   C.2       1 RES1   0.0000
   210 C66     17.8348  12.3167  14.9777   C.2       1 RES1   0.0000
   211 C67      8.9174  12.3167  11.7745   C.2       1 RES1   0.0000
   212 C68      8.9174  14.4355  14.9777   C.2       1 RES1   0.0000
   213 C69     11.7745  17.8348  14.4355   C.2       1 RES1   0.0000
   214 C70     14.9777  17.8348  12.3167   C.2       1 RES1   0.0000
   215 C71     11.7745   8.9174  12.3167   C.2       1 RES1   0.0000
   216 C72     14.9777   8.9174  14.4355   C.2       1 RES1   0.0000
   217 C73      4.5782   5.1097   0.0018   C.2       1 RES1   0.0000
   218 C74      4.3392   3.8077   0.0018   C.2       1 RES1   0.0000
   219 C75      4.3392   5.1097   8.9156   C.2       1 RES1   0.0000
   220 C76      4.5782   3.8077   8.9156   C.2       1 RES1   0.0000
   221 C77      0.0018   4.5782   5.1097   C.2       1 RES1   0.0000
   222 C78      0.0018   4.3392   3.8077   C.2       1 RES1   0.0000
   223 C79      8.9156   4.3392   5.1097   C.2       1 RES1   0.0000
   224 C80      8.9156   4.5782   3.8077   C.2       1 RES1   0.0000
   225 C81      5.1097   0.0018   4.5782   C.2       1 RES1   0.0000
   226 C82      3.8077   0.0018   4.3392   C.2       1 RES1   0.0000
   227 C83      5.1097   8.9156   4.3392   C.2       1 RES1   0.0000
   228 C84      3.8077   8.9156   4.5782   C.2       1 RES1   0.0000
   229 C85     13.2566  12.7251  17.8330   C.2       1 RES1   0.0000
   230 C86     13.4956  14.0271  17.8330   C.2       1 RES1   0.0000
   231 C87     13.4956  12.7251   8.9192   C.2       1 RES1   0.0000
   232 C88     13.2566  14.0271   8.9192   C.2       1 RES1   0.0000
   233 C89     17.8330  13.2566  12.7251   C.2       1 RES1   0.0000
   234 C90     17.8330  13.4956  14.0271   C.2       1 RES1   0.0000
   235 C91      8.9192  13.4956  12.7251   C.2       1 RES1   0.0000
   236 C92      8.9192  13.2566  14.0271   C.2       1 RES1   0.0000
   237 C93     12.7251  17.8330  13.2566   C.2       1 RES1   0.0000
   238 C94     14.0271  17.8330  13.4956   C.2       1 RES1   0.0000
   239 C95     12.7251   8.9192  13.4956   C.2       1 RES1   0.0000
   240 C96     14.0271   8.9192  13.2566   C.2       1 RES1   0.0000
   241 H25      5.4503   5.4325   0.0018   H         1 RES1   0.0000
   242 H26      3.4671   3.4849   0.0018   H         1 RES1   0.0000
   243 H27      3.4671   5.4325   8.9156   H         1 RES1   0.0000
   244 H28      5.4503   3.4849   8.9156   H         1 RES1   0.0000
   245 H29      0.0018   5.4503   5.4325   H         1 RES1   0.0000
   246 H30      0.0018   3.4671   3.4849   H         1 RES1   0.0000
   247 H31      8.9156   3.4671   5.4325   H         1 RES1   0.0000
   248 H32      8.9156   5.4503   3.4849   H         1 RES1   0.0000
   249 H33      5.4325   0.0018   5.4503   H         1 RES1   0.0000
   250 H34      3.4849   0.0018   3.4671   H         1 RES1   0.0000
   251 H35      5.4325   8.9156   3.4671   H         1 RES1   0.0000
   252 H36      3.4849   8.9156   5.4503   H         1 RES1   0.0000
   253 H37     12.3845  12.4023  17.8330   H         1 RES1   0.0000
   254 H38     14.3677  14.3499  17.8330   H         1 RES1   0.0000
   255 H39     14.3677  12.4023   8.9192   H         1 RES1   0.0000
   256 H40     12.3845  14.3499   8.9192   H         1 RES1   0.0000
   257 H41     17.8330  12.3845  12.4023   H         1 RES1   0.0000
   258 H42     17.8330  14.3677  14.3499   H         1 RES1   0.0000
   259 H43      8.9192  14.3677  12.4023   H         1 RES1   0.0000
   260 H44      8.9192  12.3845  14.3499   H         1 RES1   0.0000
   261 H45     12.4023  17.8330  12.3845   H         1 RES1   0.0000
   262 H46     14.3499  17.8330  14.3677   H         1 RES1   0.0000
   263 H47     12.4023   8.9192  14.3677   H         1 RES1   0.0000
   264 H48     14.3499   8.9192  12.3845   H         1 RES1   0.0000
   265 O97      1.3644  10.5529  16.6809   O.3       1 RES1   0.0000
   266 O98      7.5530  16.1993  16.6809   O.3       1 RES1   0.0000
   267 O99      7.5530  10.5529  10.0713   O.3       1 RES1   0.0000
   268 O100     1.3644  16.1993  10.0713   O.3       1 RES1   0.0000
   269 O101    16.6809   1.3644  10.5529   O.3       1 RES1   0.0000
   270 O102    16.6809   7.5530  16.1993   O.3       1 RES1   0.0000
   271 O103    10.0713   7.5530  10.5529   O.3       1 RES1   0.0000
   272 O104    10.0713   1.3644  16.1993   O.3       1 RES1   0.0000
   273 O105    10.5529  16.6809   1.3644   O.3       1 RES1   0.0000
   274 O106    16.1993  16.6809   7.5530   O.3       1 RES1   0.0000
   275 O107    10.5529  10.0713   7.5530   O.3       1 RES1   0.0000
   276 O108    16.1993  10.0713   1.3644   O.3       1 RES1   0.0000
   277 O109    16.4704   7.2819   1.1539   O.3       1 RES1   0.0000
   278 O110    10.2818   1.6355   1.1539   O.3       1 RES1   0.0000
   279 O111    10.2818   7.2819   7.7635   O.3       1 RES1   0.0000
   280 O112    16.4704   1.6355   7.7635   O.3       1 RES1   0.0000
   281 O113     1.1539  16.4704   7.2819   O.3       1 RES1   0.0000
   282 O114     1.1539  10.2818   1.6355   O.3       1 RES1   0.0000
   283 O115     7.7635  10.2818   7.2819   O.3       1 RES1   0.0000
   284 O116     7.7635  16.4704   1.6355   O.3       1 RES1   0.0000
   285 O117     7.2819   1.1539  16.4704   O.3       1 RES1   0.0000
   286 O118     1.6355   1.1539  10.2818   O.3       1 RES1   0.0000
   287 O119     7.2819   7.7635  10.2818   O.3       1 RES1   0.0000
   288 O120     1.6355   7.7635  16.4704   O.3       1 RES1   0.0000
   289 O121     1.0630   7.8544   1.0630   O.3       1 RES1   0.0000
   290 O122     7.8544   1.0630   1.0630   O.3       1 RES1   0.0000
   291 O123     7.8544   7.8544   7.8544   O.3       1 RES1   0.0000
   292 O124     1.0630   1.0630   7.8544   O.3       1 RES1   0.0000
   293 O125    16.7718   9.9804  16.7718   O.3       1 RES1   0.0000
   294 O126     9.9804  16.7718  16.7718   O.3       1 RES1   0.0000
   295 O127     9.9804   9.9804   9.9804   O.3       1 RES1   0.0000
   296 O128    16.7718  16.7718   9.9804   O.3       1 RES1   0.0000
   297 O129     1.0630  10.1409  16.9502   O.3       1 RES1   0.0000
   298 O130     7.8544  16.6113  16.9502   O.3       1 RES1   0.0000
   299 O131     7.8544  10.1409   9.8020   O.3       1 RES1   0.0000
   300 O132     1.0630  16.6113   9.8020   O.3       1 RES1   0.0000
   301 O133    16.9502   1.0630  10.1409   O.3       1 RES1   0.0000
   302 O134    16.9502   7.8544  16.6113   O.3       1 RES1   0.0000
   303 O135     9.8020   7.8544  10.1409   O.3       1 RES1   0.0000
   304 O136     9.8020   1.0630  16.6113   O.3       1 RES1   0.0000
   305 O137    10.1409  16.9502   1.0630   O.3       1 RES1   0.0000
   306 O138    16.6113  16.9502   7.8544   O.3       1 RES1   0.0000
   307 O139    10.1409   9.8020   7.8544   O.3       1 RES1   0.0000
   308 O140    16.6113   9.8020   1.0630   O.3       1 RES1   0.0000
   309 O141    16.7718   7.6939   0.8846   O.3       1 RES1   0.0000
   310 O142     9.9804   1.2235   0.8846   O.3       1 RES1   0.0000
   311 O143     9.9804   7.6939   8.0328   O.3       1 RES1   0.0000
   312 O144    16.7718   1.2235   8.0328   O.3       1 RES1   0.0000
   313 O145     0.8846  16.7718   7.6939   O.3       1 RES1   0.0000
   314 O146     0.8846   9.9804   1.2235   O.3       1 RES1   0.0000
   315 O147     8.0328   9.9804   7.6939   O.3       1 RES1   0.0000
   316 O148     8.0328  16.7718   1.2235   O.3       1 RES1   0.0000
   317 O149     7.6939   0.8846  16.7718   O.3       1 RES1   0.0000
   318 O150     1.2235   0.8846   9.9804   O.3       1 RES1   0.0000
   319 O151     7.6939   8.0328   9.9804   O.3       1 RES1   0.0000
   320 O152     1.2235   8.0328  16.7718   O.3       1 RES1   0.0000
   321 O153     1.4000   7.5174   1.4000   O.3       1 RES1   0.0000
   322 O154     7.5174   1.4000   1.4000   O.3       1 RES1   0.0000
   323 O155     7.5174   7.5174   7.5174   O.3       1 RES1   0.0000
   324 O156     1.4000   1.4000   7.5174   O.3       1 RES1   0.0000
   325 O157    16.4348  10.3174  16.4348   O.3       1 RES1   0.0000
   326 O158    10.3174  16.4348  16.4348   O.3       1 RES1   0.0000
   327 O159    10.3174  10.3174  10.3174   O.3       1 RES1   0.0000
   328 O160    16.4348  16.4348  10.3174   O.3       1 RES1   0.0000
   329 Zr1      2.4585   9.1159  18.0467   Zr        1 RES1   0.0000
   330 Zr1     20.2933   9.1159   0.2119   Zr        1 RES1   0.0000
   331 Zr2      6.4589  -0.1985   0.2119   Zr        1 RES1   0.0000
   332 Zr2      6.4589  -0.1985  18.0467   Zr        1 RES1   0.0000
   333 Zr2      6.4589  17.6363  18.0467   Zr        1 RES1   0.0000
   334 Zr4      2.4585  -0.1985   8.7055   Zr        1 RES1   0.0000
   335 Zr4     20.2933  -0.1985   8.7055   Zr        1 RES1   0.0000
   336 Zr4     20.2933  17.6363   8.7055   Zr        1 RES1   0.0000
   337 Zr5      0.2119  20.2933   9.1159   Zr        1 RES1   0.0000
   338 Zr5     18.0467   2.4585   9.1159   Zr        1 RES1   0.0000
   339 Zr6      0.2119   6.4589  -0.1985   Zr        1 RES1   0.0000
   340 Zr6     18.0467   6.4589  -0.1985   Zr        1 RES1   0.0000
   341 Zr6     18.0467   6.4589  17.6363   Zr        1 RES1   0.0000
   342 Zr8      8.7055   2.4585  -0.1985   Zr        1 RES1   0.0000
   343 Zr8      8.7055  20.2933  -0.1985   Zr        1 RES1   0.0000
   344 Zr8      8.7055  20.2933  17.6363   Zr        1 RES1   0.0000
   345 Zr9      9.1159   0.2119  20.2933   Zr        1 RES1   0.0000
   346 Zr9      9.1159  18.0467   2.4585   Zr        1 RES1   0.0000
   347 Zr10    -0.1985   0.2119   6.4589   Zr        1 RES1   0.0000
   348 Zr10    -0.1985  18.0467   6.4589   Zr        1 RES1   0.0000
   349 Zr10    17.6363  18.0467   6.4589   Zr        1 RES1   0.0000
   350 Zr12    -0.1985   8.7055   2.4585   Zr        1 RES1   0.0000
   351 Zr12    -0.1985   8.7055  20.2933   Zr        1 RES1   0.0000
   352 Zr12    17.6363   8.7055  20.2933   Zr        1 RES1   0.0000
   353 Zr13    -2.4585   8.7189  17.6229   Zr        1 RES1   0.0000
   354 Zr13    15.3763   8.7189  -0.2119   Zr        1 RES1   0.0000
   355 Zr14    11.3759   0.1985  -0.2119   Zr        1 RES1   0.0000
   356 Zr14    11.3759  18.0333  -0.2119   Zr        1 RES1   0.0000
   357 Zr14    11.3759  18.0333  17.6229   Zr        1 RES1   0.0000
   358 Zr16    -2.4585   0.1985   9.1293   Zr        1 RES1   0.0000
   359 Zr16    -2.4585  18.0333   9.1293   Zr        1 RES1   0.0000
   360 Zr16    15.3763  18.0333   9.1293   Zr        1 RES1   0.0000
   361 Zr17    -0.2119  15.3763   8.7189   Zr        1 RES1   0.0000
   362 Zr17    17.6229  -2.4585   8.7189   Zr        1 RES1   0.0000
   363 Zr18    -0.2119  11.3759   0.1985   Zr        1 RES1   0.0000
   364 Zr18    -0.2119  11.3759  18.0333   Zr        1 RES1   0.0000
   365 Zr18    17.6229  11.3759  18.0333   Zr        1 RES1   0.0000
   366 Zr20     9.1293  -2.4585   0.1985   Zr        1 RES1   0.0000
   367 Zr20     9.1293  -2.4585  18.0333   Zr        1 RES1   0.0000
   368 Zr20     9.1293  15.3763  18.0333   Zr        1 RES1   0.0000
   369 Zr21     8.7189  -0.2119  15.3763   Zr        1 RES1   0.0000
   370 Zr21     8.7189  17.6229  -2.4585   Zr        1 RES1   0.0000
   371 Zr22     0.1985  -0.2119  11.3759   Zr        1 RES1   0.0000
   372 Zr22    18.0333  -0.2119  11.3759   Zr        1 RES1   0.0000
   373 Zr22    18.0333  17.6229  11.3759   Zr        1 RES1   0.0000
   374 Zr24     0.1985   9.1293  -2.4585   Zr        1 RES1   0.0000
   375 Zr24    18.0333   9.1293  -2.4585   Zr        1 RES1   0.0000
   376 Zr24    18.0333   9.1293  15.3763   Zr        1 RES1   0.0000
   377 O2       5.1899  19.4667   0.1427   O.co2     1 RES1   0.0000
   378 O4       3.7275  19.4667   8.7747   O.co2     1 RES1   0.0000
   379 O6       0.1427   5.1899  19.4667   O.co2     1 RES1   0.0000
   380 O8       8.7747   3.7275  19.4667   O.co2     1 RES1   0.0000
   381 O10     19.4667   0.1427   5.1899   O.co2     1 RES1   0.0000
   382 O12     19.4667   8.7747   3.7275   O.co2     1 RES1   0.0000
   383 O14     12.6449  -1.6319  17.6921   O.2       1 RES1   0.0000
   384 O16     14.1073  -1.6319   9.0601   O.2       1 RES1   0.0000
   385 O18     17.6921  12.6449  -1.6319   O.2       1 RES1   0.0000
   386 O20      9.0601  14.1073  -1.6319   O.2       1 RES1   0.0000
   387 O22     -1.6319  17.6921  12.6449   O.2       1 RES1   0.0000
   388 O24     -1.6319   9.0601  14.1073   O.2       1 RES1   0.0000
   389 O50      5.5359  17.7046   2.2525   O.co2     1 RES1   0.0000
   390 O52      3.3815  17.7046   6.6649   O.co2     1 RES1   0.0000
   391 O54      2.2525   5.5359  17.7046   O.co2     1 RES1   0.0000
   392 O56      6.6649   3.3815  17.7046   O.co2     1 RES1   0.0000
   393 O58     17.7046   2.2525   5.5359   O.co2     1 RES1   0.0000
   394 O60     17.7046   6.6649   3.3815   O.co2     1 RES1   0.0000
   395 O62     12.2989   0.1302  15.5823   O.2       1 RES1   0.0000
   396 O64     14.4533   0.1302  11.1699   O.2       1 RES1   0.0000
   397 O66     15.5823  12.2989   0.1302   O.2       1 RES1   0.0000
   398 O68     11.1699  14.4533   0.1302   O.2       1 RES1   0.0000
   399 O70      0.1302  15.5823  12.2989   O.2       1 RES1   0.0000
   400 O72      0.1302  11.1699  14.4533   O.2       1 RES1   0.0000
   401 O73      3.7239   9.3437  -1.6158   O.2       1 RES1   0.0000
   402 O74      5.1935  17.4085  -1.6158   O.2       1 RES1   0.0000
   403 O77     -1.6158   3.7239   9.3437   O.2       1 RES1   0.0000
   404 O78     -1.6158   5.1935  17.4085   O.2       1 RES1   0.0000
   405 O81      9.3437  -1.6158   3.7239   O.2       1 RES1   0.0000
   406 O82     17.4085  -1.6158   5.1935   O.2       1 RES1   0.0000
   407 O85     14.1109   8.4911  19.4506   O.co2     1 RES1   0.0000
   408 O86     12.6413   0.4263  19.4506   O.co2     1 RES1   0.0000
   409 O89     19.4506  14.1109   8.4911   O.co2     1 RES1   0.0000
   410 O90     19.4506  12.6413   0.4263   O.co2     1 RES1   0.0000
   411 O93      8.4911  19.4506  14.1109   O.co2     1 RES1   0.0000
   412 O94      0.4263  19.4506  12.6413   O.co2     1 RES1   0.0000
   413 O97      1.3644  10.5529  -1.1539   O.3       1 RES1   0.0000
   414 O97     19.1992  10.5529  -1.1539   O.3       1 RES1   0.0000
   415 O98      7.5530  16.1993  -1.1539   O.3       1 RES1   0.0000
   416 O100    19.1992  16.1993  10.0713   O.3       1 RES1   0.0000
   417 O101    -1.1539   1.3644  10.5529   O.3       1 RES1   0.0000
   418 O101    -1.1539  19.1992  10.5529   O.3       1 RES1   0.0000
   419 O102    -1.1539   7.5530  16.1993   O.3       1 RES1   0.0000
   420 O104    10.0713  19.1992  16.1993   O.3       1 RES1   0.0000
   421 O105    10.5529  -1.1539   1.3644   O.3       1 RES1   0.0000
   422 O105    10.5529  -1.1539  19.1992   O.3       1 RES1   0.0000
   423 O106    16.1993  -1.1539   7.5530   O.3       1 RES1   0.0000
   424 O108    16.1993  10.0713  19.1992   O.3       1 RES1   0.0000
   425 O109    -1.3644   7.2819  18.9887   O.3       1 RES1   0.0000
   426 O109    16.4704   7.2819  18.9887   O.3       1 RES1   0.0000
   427 O110    10.2818   1.6355  18.9887   O.3       1 RES1   0.0000
   428 O112    -1.3644   1.6355   7.7635   O.3       1 RES1   0.0000
   429 O113    18.9887  -1.3644   7.2819   O.3       1 RES1   0.0000
   430 O113    18.9887  16.4704   7.2819   O.3       1 RES1   0.0000
   431 O114    18.9887  10.2818   1.6355   O.3       1 RES1   0.0000
   432 O116     7.7635  -1.3644   1.6355   O.3       1 RES1   0.0000
   433 O117     7.2819  18.9887  -1.3644   O.3       1 RES1   0.0000
   434 O117     7.2819  18.9887  16.4704   O.3       1 RES1   0.0000
   435 O118     1.6355  18.9887  10.2818   O.3       1 RES1   0.0000
   436 O120     1.6355   7.7635  -1.3644   O.3       1 RES1   0.0000
   437 O121     1.0630   7.8544  18.8978   O.3       1 RES1   0.0000
   438 O121    18.8978   7.8544   1.0630   O.3       1 RES1   0.0000
   439 O122     7.8544   1.0630  18.8978   O.3       1 RES1   0.0000
   440 O122     7.8544  18.8978   1.0630   O.3       1 RES1   0.0000
   441 O124     1.0630  18.8978   7.8544   O.3       1 RES1   0.0000
   442 O124    18.8978   1.0630   7.8544   O.3       1 RES1   0.0000
   443 O125    -1.0630   9.9804  16.7718   O.3       1 RES1   0.0000
   444 O125    16.7718   9.9804  -1.0630   O.3       1 RES1   0.0000
   445 O126     9.9804  -1.0630  16.7718   O.3       1 RES1   0.0000
   446 O126     9.9804  16.7718  -1.0630   O.3       1 RES1   0.0000
   447 O128    -1.0630  16.7718   9.9804   O.3       1 RES1   0.0000
   448 O128    16.7718  -1.0630   9.9804   O.3       1 RES1   0.0000
   449 O129     1.0630  10.1409  -0.8846   O.3       1 RES1   0.0000
   450 O129    18.8978  10.1409  -0.8846   O.3       1 RES1   0.0000
   451 O130     7.8544  16.6113  -0.8846   O.3       1 RES1   0.0000
   452 O132    18.8978  16.6113   9.8020   O.3       1 RES1   0.0000
   453 O133    -0.8846   1.0630  10.1409   O.3       1 RES1   0.0000
   454 O133    -0.8846  18.8978  10.1409   O.3       1 RES1   0.0000
   455 O134    -0.8846   7.8544  16.6113   O.3       1 RES1   0.0000
   456 O136     9.8020  18.8978  16.6113   O.3       1 RES1   0.0000
   457 O137    10.1409  -0.8846   1.0630   O.3       1 RES1   0.0000
   458 O137    10.1409  -0.8846  18.8978   O.3       1 RES1   0.0000
   459 O138    16.6113  -0.8846   7.8544   O.3       1 RES1   0.0000
   460 O140    16.6113   9.8020  18.8978   O.3       1 RES1   0.0000
   461 O141    -1.0630   7.6939  18.7194   O.3       1 RES1   0.0000
   462 O141    16.7718   7.6939  18.7194   O.3       1 RES1   0.0000
   463 O142     9.9804   1.2235  18.7194   O.3       1 RES1   0.0000
   464 O144    -1.0630   1.2235   8.0328   O.3       1 RES1   0.0000
   465 O145    18.7194  -1.0630   7.6939   O.3       1 RES1   0.0000
   466 O145    18.7194  16.7718   7.6939   O.3       1 RES1   0.0000
   467 O146    18.7194   9.9804   1.2235   O.3       1 RES1   0.0000
   468 O148     8.0328  -1.0630   1.2235   O.3       1 RES1   0.0000
   469 O149     7.6939  18.7194  -1.0630   O.3       1 RES1   0.0000
   470 O149     7.6939  18.7194  16.7718   O.3       1 RES1   0.0000
   471 O150     1.2235  18.7194   9.9804   O.3       1 RES1   0.0000
   472 O152     1.2235   8.0328  -1.0630   O.3       1 RES1   0.0000
   473 O153     1.4000   7.5174  19.2348   O.3       1 RES1   0.0000
   474 O153    19.2348   7.5174   1.4000   O.3       1 RES1   0.0000
   475 O154     7.5174   1.4000  19.2348   O.3       1 RES1   0.0000
   476 O154     7.5174  19.2348   1.4000   O.3       1 RES1   0.0000
   477 O156     1.4000  19.2348   7.5174   O.3       1 RES1   0.0000
   478 O156    19.2348   1.4000   7.5174   O.3       1 RES1   0.0000
   479 O157    -1.4000  10.3174  16.4348   O.3       1 RES1   0.0000
   480 O157    16.4348  10.3174  -1.4000   O.3       1 RES1   0.0000
   481 O158    10.3174  -1.4000  16.4348   O.3       1 RES1   0.0000
   482 O158    10.3174  16.4348  -1.4000   O.3       1 RES1   0.0000
   483 O160    -1.4000  16.4348  10.3174   O.3       1 RES1   0.0000
   484 O160    16.4348  -1.4000  10.3174   O.3       1 RES1   0.0000
   485 Zr3      6.4589   9.1159  26.5403   Zr        1 RES1   0.0000
   486 Zr4      2.4585  17.6363  26.5403   Zr        1 RES1   0.0000
   487 Zr5      0.2119   2.4585  26.9507   Zr        1 RES1   0.0000
   488 Zr6      0.2119   6.4589  35.4711   Zr        1 RES1   0.0000
   489 Zr7      8.7055   6.4589  26.9507   Zr        1 RES1   0.0000
   490 Zr8      8.7055   2.4585  35.4711   Zr        1 RES1   0.0000
   491 Zr10    17.6363   0.2119  24.2937   Zr        1 RES1   0.0000
   492 Zr11     9.1159   8.7055  24.2937   Zr        1 RES1   0.0000
   493 Zr13    15.3763   8.7189  35.4577   Zr        1 RES1   0.0000
   494 Zr14    11.3759   0.1985  35.4577   Zr        1 RES1   0.0000
   495 Zr15    11.3759   8.7189  26.9641   Zr        1 RES1   0.0000
   496 Zr16    15.3763   0.1985  26.9641   Zr        1 RES1   0.0000
   497 Zr17    17.6229  15.3763  26.5537   Zr        1 RES1   0.0000
   498 Zr19     9.1293  11.3759  26.5537   Zr        1 RES1   0.0000
   499 Zr21     8.7189  17.6229  33.2111   Zr        1 RES1   0.0000
   500 Zr22     0.1985  17.6229  29.2107   Zr        1 RES1   0.0000
   501 Zr23     8.7189   9.1293  29.2107   Zr        1 RES1   0.0000
   502 Zr24     0.1985   9.1293  33.2111   Zr        1 RES1   0.0000
   503 O1       3.7275   7.2855  17.9775   O.co2     1 RES1   0.0000
   504 O2       5.1899   1.6319  17.9775   O.co2     1 RES1   0.0000
   505 O3       5.1899   7.2855  26.6095   O.co2     1 RES1   0.0000
   506 O4       3.7275   1.6319  26.6095   O.co2     1 RES1   0.0000
   507 O5       0.1427   3.7275  25.1203   O.co2     1 RES1   0.0000
   508 O7       8.7747   5.1899  25.1203   O.co2     1 RES1   0.0000
   509 O9       7.2855   0.1427  21.5623   O.co2     1 RES1   0.0000
   510 O10      1.6319   0.1427  23.0247   O.co2     1 RES1   0.0000
   511 O11      7.2855   8.7747  23.0247   O.co2     1 RES1   0.0000
   512 O12      1.6319   8.7747  21.5623   O.co2     1 RES1   0.0000
   513 O13     14.1073  10.5493  35.5269   O.co2     1 RES1   0.0000
   514 O14     12.6449  16.2029  35.5269   O.co2     1 RES1   0.0000
   515 O15     12.6449  10.5493  26.8949   O.co2     1 RES1   0.0000
   516 O16     14.1073  16.2029  26.8949   O.co2     1 RES1   0.0000
   517 O17     17.6921  14.1073  28.3841   O.co2     1 RES1   0.0000
   518 O18     17.6921  12.6449  34.0377   O.co2     1 RES1   0.0000
   519 O19      9.0601  12.6449  28.3841   O.co2     1 RES1   0.0000
   520 O20      9.0601  14.1073  34.0377   O.co2     1 RES1   0.0000
   521 O21     10.5493  17.6921  31.9421   O.co2     1 RES1   0.0000
   522 O22     16.2029  17.6921  30.4797   O.co2     1 RES1   0.0000
   523 O23     10.5493   9.0601  30.4797   O.co2     1 RES1   0.0000
   524 O24     16.2029   9.0601  31.9421   O.co2     1 RES1   0.0000
   525 O25      3.3957  11.1396  18.2735   O.co2     1 RES1   0.0000
   526 O26      5.5217  15.6126  18.2735   O.co2     1 RES1   0.0000
   527 O27      5.5217  11.1396  26.3135   O.co2     1 RES1   0.0000
   528 O28      3.3957  15.6126  26.3135   O.co2     1 RES1   0.0000
   529 O29      0.4387   3.3957  28.9744   O.co2     1 RES1   0.0000
   530 O30      0.4387   5.5217  33.4474   O.co2     1 RES1   0.0000
   531 O31      8.4787   5.5217  28.9744   O.co2     1 RES1   0.0000
   532 O32      8.4787   3.3957  33.4474   O.co2     1 RES1   0.0000
   533 O33     11.1396   0.4387  21.2305   O.co2     1 RES1   0.0000
   534 O34     15.6126   0.4387  23.3565   O.co2     1 RES1   0.0000
   535 O35     11.1396   8.4787  23.3565   O.co2     1 RES1   0.0000
   536 O36     15.6126   8.4787  21.2305   O.co2     1 RES1   0.0000
   537 O37     14.4391   6.6952  35.2309   O.co2     1 RES1   0.0000
   538 O38     12.3131   2.2222  35.2309   O.co2     1 RES1   0.0000
   539 O39     12.3131   6.6952  27.1909   O.co2     1 RES1   0.0000
   540 O40     14.4391   2.2222  27.1909   O.co2     1 RES1   0.0000
   541 O41     17.3961  14.4391  24.5300   O.co2     1 RES1   0.0000
   542 O42     17.3961  12.3131  20.0570   O.co2     1 RES1   0.0000
   543 O43      9.3561  12.3131  24.5300   O.co2     1 RES1   0.0000
   544 O44      9.3561  14.4391  20.0570   O.co2     1 RES1   0.0000
   545 O45      6.6952  17.3961  32.2739   O.co2     1 RES1   0.0000
   546 O46      2.2222  17.3961  30.1479   O.co2     1 RES1   0.0000
   547 O47      6.6952   9.3561  30.1479   O.co2     1 RES1   0.0000
   548 O48      2.2222   9.3561  32.2739   O.co2     1 RES1   0.0000
   549 O49      3.3815   9.0476  20.0873   O.co2     1 RES1   0.0000
   550 O50      5.5359  -0.1302  20.0873   O.co2     1 RES1   0.0000
   551 O51      5.5359   9.0476  24.4997   O.co2     1 RES1   0.0000
   552 O52      3.3815  -0.1302  24.4997   O.co2     1 RES1   0.0000
   553 O53      2.2525   3.3815  26.8824   O.co2     1 RES1   0.0000
   554 O55      6.6649   5.5359  26.8824   O.co2     1 RES1   0.0000
   555 O57      9.0476   2.2525  21.2163   O.co2     1 RES1   0.0000
   556 O58     -0.1302   2.2525  23.3707   O.co2     1 RES1   0.0000
   557 O59      9.0476   6.6649  23.3707   O.co2     1 RES1   0.0000
   558 O60     -0.1302   6.6649  21.2163   O.co2     1 RES1   0.0000
   559 O61     14.4533   8.7872  33.4171   O.co2     1 RES1   0.0000
   560 O62     12.2989  17.9650  33.4171   O.co2     1 RES1   0.0000
   561 O63     12.2989   8.7872  29.0047   O.co2     1 RES1   0.0000
   562 O64     14.4533  17.9650  29.0047   O.co2     1 RES1   0.0000
   563 O65     15.5823  14.4533  26.6220   O.co2     1 RES1   0.0000
   564 O66     15.5823  12.2989  35.7998   O.co2     1 RES1   0.0000
   565 O67     11.1699  12.2989  26.6220   O.co2     1 RES1   0.0000
   566 O68     11.1699  14.4533  35.7998   O.co2     1 RES1   0.0000
   567 O69      8.7872  15.5823  32.2881   O.co2     1 RES1   0.0000
   568 O70     17.9650  15.5823  30.1337   O.co2     1 RES1   0.0000
   569 O71      8.7872  11.1699  30.1337   O.co2     1 RES1   0.0000
   570 O72     17.9650  11.1699  32.2881   O.co2     1 RES1   0.0000
   571 O73      3.7239   9.3437  34.0538   O.co2     1 RES1   0.0000
   572 O74      5.1935  17.4085  34.0538   O.co2     1 RES1   0.0000
   573 O75      5.1935   9.3437  28.3680   O.co2     1 RES1   0.0000
   574 O76      3.7239  17.4085  28.3680   O.co2     1 RES1   0.0000
   575 O77     16.2190   3.7239  27.1785   O.co2     1 RES1   0.0000
   576 O78     16.2190   5.1935  35.2433   O.co2     1 RES1   0.0000
   577 O79     10.5332   5.1935  27.1785   O.co2     1 RES1   0.0000
   578 O80     10.5332   3.7239  35.2433   O.co2     1 RES1   0.0000
   579 O81      9.3437  16.2190  21.5587   O.co2     1 RES1   0.0000
   580 O82     17.4085  16.2190  23.0283   O.co2     1 RES1   0.0000
   581 O83      9.3437  10.5332  23.0283   O.co2     1 RES1   0.0000
   582 O84     17.4085  10.5332  21.5587   O.co2     1 RES1   0.0000
   583 O87     12.6413   8.4911  25.1364   O.co2     1 RES1   0.0000
   584 O88     14.1109   0.4263  25.1364   O.co2     1 RES1   0.0000
   585 O89      1.6158  14.1109  26.3259   O.co2     1 RES1   0.0000
   586 O90      1.6158  12.6413  18.2611   O.co2     1 RES1   0.0000
   587 O91      7.3016  12.6413  26.3259   O.co2     1 RES1   0.0000
   588 O92      7.3016  14.1109  18.2611   O.co2     1 RES1   0.0000
   589 O93      8.4911   1.6158  31.9457   O.co2     1 RES1   0.0000
   590 O94      0.4263   1.6158  30.4761   O.co2     1 RES1   0.0000
   591 O95      8.4911   7.3016  30.4761   O.co2     1 RES1   0.0000
   592 O96      0.4263   7.3016  31.9457   O.co2     1 RES1   0.0000
   593 C1       2.8607  12.2900  18.2628   C.2       1 RES1   0.0000
   594 C2       6.0567  14.4622  18.2628   C.2       1 RES1   0.0000
   595 C3       6.0567  12.2900  26.3242   C.2       1 RES1   0.0000
   596 C4       2.8607  14.4622  26.3242   C.2       1 RES1   0.0000
   597 C5       0.4280   2.8607  30.1248   C.2       1 RES1   0.0000
   598 C6       0.4280   6.0567  32.2970   C.2       1 RES1   0.0000
   599 C7       8.4894   6.0567  30.1248   C.2       1 RES1   0.0000
   600 C8       8.4894   2.8607  32.2970   C.2       1 RES1   0.0000
   601 C9      12.2900   0.4280  20.6955   C.2       1 RES1   0.0000
   602 C10     14.4622   0.4280  23.8915   C.2       1 RES1   0.0000
   603 C11     12.2900   8.4894  23.8915   C.2       1 RES1   0.0000
   604 C12     14.4622   8.4894  20.6955   C.2       1 RES1   0.0000
   605 C13     14.9741   5.5448  35.2416   C.2       1 RES1   0.0000
   606 C14     11.7781   3.3726  35.2416   C.2       1 RES1   0.0000
   607 C15     11.7781   5.5448  27.1802   C.2       1 RES1   0.0000
   608 C16     14.9741   3.3726  27.1802   C.2       1 RES1   0.0000
   609 C17     17.4068  14.9741  23.3796   C.2       1 RES1   0.0000
   610 C18     17.4068  11.7781  21.2074   C.2       1 RES1   0.0000
   611 C19      9.3454  11.7781  23.3796   C.2       1 RES1   0.0000
   612 C20      9.3454  14.9741  21.2074   C.2       1 RES1   0.0000
   613 C21      5.5448  17.4068  32.8089   C.2       1 RES1   0.0000
   614 C22      3.3726  17.4068  29.6129   C.2       1 RES1   0.0000
   615 C23      5.5448   9.3454  29.6129   C.2       1 RES1   0.0000
   616 C24      3.3726   9.3454  32.8089   C.2       1 RES1   0.0000
   617 C25      3.8202  13.4742  18.2682   C.2       1 RES1   0.0000
   618 C26      5.0972  13.2780  18.2682   C.2       1 RES1   0.0000
   619 C27      5.0972  13.4742  26.3188   C.2       1 RES1   0.0000
   620 C28      3.8202  13.2780  26.3188   C.2       1 RES1   0.0000
   621 C29      0.4334   3.8202  31.3090   C.2       1 RES1   0.0000
   622 C30      0.4334   5.0972  31.1128   C.2       1 RES1   0.0000
   623 C31      8.4840   5.0972  31.3090   C.2       1 RES1   0.0000
   624 C32      8.4840   3.8202  31.1128   C.2       1 RES1   0.0000
   625 C33     13.4742   0.4334  21.6550   C.2       1 RES1   0.0000
   626 C34     13.2780   0.4334  22.9320   C.2       1 RES1   0.0000
   627 C35     13.4742   8.4840  22.9320   C.2       1 RES1   0.0000
   628 C36     13.2780   8.4840  21.6550   C.2       1 RES1   0.0000
   629 C37     14.0146   4.3606  35.2362   C.2       1 RES1   0.0000
   630 C38     12.7376   4.5568  35.2362   C.2       1 RES1   0.0000
   631 C39     12.7376   4.3606  27.1856   C.2       1 RES1   0.0000
   632 C40     14.0146   4.5568  27.1856   C.2       1 RES1   0.0000
   633 C41     17.4014  14.0146  22.1954   C.2       1 RES1   0.0000
   634 C42     17.4014  12.7376  22.3916   C.2       1 RES1   0.0000
   635 C43      9.3508  12.7376  22.1954   C.2       1 RES1   0.0000
   636 C44      9.3508  14.0146  22.3916   C.2       1 RES1   0.0000
   637 C45      4.3606  17.4014  31.8494   C.2       1 RES1   0.0000
   638 C46      4.5568  17.4014  30.5724   C.2       1 RES1   0.0000
   639 C47      4.3606   9.3508  30.5724   C.2       1 RES1   0.0000
   640 C48      4.5568   9.3508  31.8494   C.2       1 RES1   0.0000
   641 H1       3.4867  14.3427  18.2700   H         1 RES1   0.0000
   642 H2       5.4307  12.4095  18.2700   H         1 RES1   0.0000
   643 H3       5.4307  14.3427  26.3170   H         1 RES1   0.0000
   644 H4       3.4867  12.4095  26.3170   H         1 RES1   0.0000
   645 H5       0.4352   3.4867  32.1775   H         1 RES1   0.0000
   646 H6       0.4352   5.4307  30.2443   H         1 RES1   0.0000
   647 H7       8.4822   5.4307  32.1775   H         1 RES1   0.0000
   648 H8       8.4822   3.4867  30.2443   H         1 RES1   0.0000
   649 H9      14.3427   0.4352  21.3215   H         1 RES1   0.0000
   650 H10     12.4095   0.4352  23.2655   H         1 RES1   0.0000
   651 H11     14.3427   8.4822  23.2655   H         1 RES1   0.0000
   652 H12     12.4095   8.4822  21.3215   H         1 RES1   0.0000
   653 H13     14.3481   3.4921  35.2344   H         1 RES1   0.0000
   654 H14     12.4041   5.4253  35.2344   H         1 RES1   0.0000
   655 H15     12.4041   3.4921  27.1874   H         1 RES1   0.0000
   656 H16     14.3481   5.4253  27.1874   H         1 RES1   0.0000
   657 H17     17.3996  14.3481  21.3269   H         1 RES1   0.0000
   658 H18     17.3996  12.4041  23.2601   H         1 RES1   0.0000
   659 H19      9.3526  12.4041  21.3269   H         1 RES1   0.0000
   660 H20      9.3526  14.3481  23.2601   H         1 RES1   0.0000
   661 H21      3.4921  17.3996  32.1829   H         1 RES1   0.0000
   662 H22      5.4253  17.3996  30.2389   H         1 RES1   0.0000
   663 H23      3.4921   9.3526  30.2389   H         1 RES1   0.0000
   664 H24      5.4253   9.3526  32.1829   H         1 RES1   0.0000
   665 C49      3.3993   6.0603  17.8348   C.2       1 RES1   0.0000
   666 C50      5.5181   2.8571  17.8348   C.2       1 RES1   0.0000
   667 C51      5.5181   6.0603  26.7522   C.2       1 RES1   0.0000
   668 C52      3.3993   2.8571  26.7522   C.2       1 RES1   0.0000
   669 C53      0.0000   3.3993  23.8951   C.2       1 RES1   0.0000
   670 C54      0.0000   5.5181  20.6919   C.2       1 RES1   0.0000
   671 C55      8.9174   5.5181  23.8951   C.2       1 RES1   0.0000
   672 C56      8.9174   3.3993  20.6919   C.2       1 RES1   0.0000
   673 C57      6.0603   0.0000  21.2341   C.2       1 RES1   0.0000
   674 C58      2.8571   0.0000  23.3529   C.2       1 RES1   0.0000
   675 C59      6.0603   8.9174  23.3529   C.2       1 RES1   0.0000
   676 C60      2.8571   8.9174  21.2341   C.2       1 RES1   0.0000
   677 C61     14.4355  11.7745  35.6696   C.2       1 RES1   0.0000
   678 C62     12.3167  14.9777  35.6696   C.2       1 RES1   0.0000
   679 C63     12.3167  11.7745  26.7522   C.2       1 RES1   0.0000
   680 C64     14.4355  14.9777  26.7522   C.2       1 RES1   0.0000
   681 C65     17.8348  14.4355  29.6093   C.2       1 RES1   0.0000
   682 C66     17.8348  12.3167  32.8125   C.2       1 RES1   0.0000
   683 C67      8.9174  12.3167  29.6093   C.2       1 RES1   0.0000
   684 C68      8.9174  14.4355  32.8125   C.2       1 RES1   0.0000
   685 C69     11.7745  17.8348  32.2703   C.2       1 RES1   0.0000
   686 C70     14.9777  17.8348  30.1515   C.2       1 RES1   0.0000
   687 C71     11.7745   8.9174  30.1515   C.2       1 RES1   0.0000
   688 C72     14.9777   8.9174  32.2703   C.2       1 RES1   0.0000
   689 C73      4.5782   5.1097  17.8366   C.2       1 RES1   0.0000
   690 C74      4.3392   3.8077  17.8366   C.2       1 RES1   0.0000
   691 C75      4.3392   5.1097  26.7504   C.2       1 RES1   0.0000
   692 C76      4.5782   3.8077  26.7504   C.2       1 RES1   0.0000
   693 C77      0.0018   4.5782  22.9445   C.2       1 RES1   0.0000
   694 C78      0.0018   4.3392  21.6425   C.2       1 RES1   0.0000
   695 C79      8.9156   4.3392  22.9445   C.2       1 RES1   0.0000
   696 C80      8.9156   4.5782  21.6425   C.2       1 RES1   0.0000
   697 C81      5.1097   0.0018  22.4130   C.2       1 RES1   0.0000
   698 C82      3.8077   0.0018  22.1740   C.2       1 RES1   0.0000
   699 C83      5.1097   8.9156  22.1740   C.2       1 RES1   0.0000
   700 C84      3.8077   8.9156  22.4130   C.2       1 RES1   0.0000
   701 C85     13.2566  12.7251  35.6678   C.2       1 RES1   0.0000
   702 C86     13.4956  14.0271  35.6678   C.2       1 RES1   0.0000
   703 C87     13.4956  12.7251  26.7540   C.2       1 RES1   0.0000
   704 C88     13.2566  14.0271  26.7540   C.2       1 RES1   0.0000
   705 C89     17.8330  13.2566  30.5599   C.2       1 RES1   0.0000
   706 C90     17.8330  13.4956  31.8619   C.2       1 RES1   0.0000
   707 C91      8.9192  13.4956  30.5599   C.2       1 RES1   0.0000
   708 C92      8.9192  13.2566  31.8619   C.2       1 RES1   0.0000
   709 C93     12.7251  17.8330  31.0914   C.2       1 RES1   0.0000
   710 C94     14.0271  17.8330  31.3304   C.2       1 RES1   0.0000
   711 C95     12.7251   8.9192  31.3304   C.2       1 RES1   0.0000
   712 C96     14.0271   8.9192  31.0914   C.2       1 RES1   0.0000
   713 H25      5.4503   5.4325  17.8366   H         1 RES1   0.0000
   714 H26      3.4671   3.4849  17.8366   H         1 RES1   0.0000
   715 H27      3.4671   5.4325  26.7504   H         1 RES1   0.0000
   716 H28      5.4503   3.4849  26.7504   H         1 RES1   0.0000
   717 H29      0.0018   5.4503  23.2673   H         1 RES1   0.0000
   718 H30      0.0018   3.4671  21.3197   H         1 RES1   0.0000
   719 H31      8.9156   3.4671  23.2673   H         1 RES1   0.0000
   720 H32      8.9156   5.4503  21.3197   H         1 RES1   0.0000
   721 H33      5.4325   0.0018  23.2851   H         1 RES1   0.0000
   722 H34      3.4849   0.0018  21.3019   H         1 RES1   0.0000
   723 H35      5.4325   8.9156  21.3019   H         1 RES1   0.0000
   724 H36      3.4849   8.9156  23.2851   H         1 RES1   0.0000
   725 H37     12.3845  12.4023  35.6678   H         1 RES1   0.0000
   726 H38     14.3677  14.3499  35.6678   H         1 RES1   0.0000
   727 H39     14.3677  12.4023  26.7540   H         1 RES1   0.0000
   728 H40     12.3845  14.3499  26.7540   H         1 RES1   0.0000
   729 H41     17.8330  12.3845  30.2371   H         1 RES1   0.0000
   730 H42     17.8330  14.3677  32.1847   H         1 RES1   0.0000
   731 H43      8.9192  14.3677  30.2371   H         1 RES1   0.0000
   732 H44      8.9192  12.3845  32.1847   H         1 RES1   0.0000
   733 H45     12.4023  17.8330  30.2193   H         1 RES1   0.0000
   734 H46     14.3499  17.8330  32.2025   H         1 RES1   0.0000
   735 H47     12.4023   8.9192  32.2025   H         1 RES1   0.0000
   736 H48     14.3499   8.9192  30.2193   H         1 RES1   0.0000
   737 O97      1.3644  10.5529  34.5157   O.3       1 RES1   0.0000
   738 O98      7.5530  16.1993  34.5157   O.3       1 RES1   0.0000
   739 O99      7.5530  10.5529  27.9061   O.3       1 RES1   0.0000
   740 O100     1.3644  16.1993  27.9061   O.3       1 RES1   0.0000
   741 O101    16.6809   1.3644  28.3877   O.3       1 RES1   0.0000
   742 O102    16.6809   7.5530  34.0341   O.3       1 RES1   0.0000
   743 O103    10.0713   7.5530  28.3877   O.3       1 RES1   0.0000
   744 O104    10.0713   1.3644  34.0341   O.3       1 RES1   0.0000
   745 O105    10.5529  16.6809  19.1992   O.3       1 RES1   0.0000
   746 O106    16.1993  16.6809  25.3878   O.3       1 RES1   0.0000
   747 O107    10.5529  10.0713  25.3878   O.3       1 RES1   0.0000
   748 O111    10.2818   7.2819  25.5983   O.3       1 RES1   0.0000
   749 O112    16.4704   1.6355  25.5983   O.3       1 RES1   0.0000
   750 O113     1.1539  16.4704  25.1167   O.3       1 RES1   0.0000
   751 O114     1.1539  10.2818  19.4703   O.3       1 RES1   0.0000
   752 O115     7.7635  10.2818  25.1167   O.3       1 RES1   0.0000
   753 O116     7.7635  16.4704  19.4703   O.3       1 RES1   0.0000
   754 O117     7.2819   1.1539  34.3052   O.3       1 RES1   0.0000
   755 O118     1.6355   1.1539  28.1166   O.3       1 RES1   0.0000
   756 O119     7.2819   7.7635  28.1166   O.3       1 RES1   0.0000
   757 O120     1.6355   7.7635  34.3052   O.3       1 RES1   0.0000
   758 O123     7.8544   7.8544  25.6892   O.3       1 RES1   0.0000
   759 O124     1.0630   1.0630  25.6892   O.3       1 RES1   0.0000
   760 O125    16.7718   9.9804  34.6066   O.3       1 RES1   0.0000
   761 O126     9.9804  16.7718  34.6066   O.3       1 RES1   0.0000
   762 O127     9.9804   9.9804  27.8152   O.3       1 RES1   0.0000
   763 O128    16.7718  16.7718  27.8152   O.3       1 RES1   0.0000
   764 O129     1.0630  10.1409  34.7850   O.3       1 RES1   0.0000
   765 O130     7.8544  16.6113  34.7850   O.3       1 RES1   0.0000
   766 O131     7.8544  10.1409  27.6368   O.3       1 RES1   0.0000
   767 O132     1.0630  16.6113  27.6368   O.3       1 RES1   0.0000
   768 O133    16.9502   1.0630  27.9757   O.3       1 RES1   0.0000
   769 O134    16.9502   7.8544  34.4461   O.3       1 RES1   0.0000
   770 O135     9.8020   7.8544  27.9757   O.3       1 RES1   0.0000
   771 O136     9.8020   1.0630  34.4461   O.3       1 RES1   0.0000
   772 O137    10.1409  16.9502  18.8978   O.3       1 RES1   0.0000
   773 O138    16.6113  16.9502  25.6892   O.3       1 RES1   0.0000
   774 O139    10.1409   9.8020  25.6892   O.3       1 RES1   0.0000
   775 O143     9.9804   7.6939  25.8676   O.3       1 RES1   0.0000
   776 O144    16.7718   1.2235  25.8676   O.3       1 RES1   0.0000
   777 O145     0.8846  16.7718  25.5287   O.3       1 RES1   0.0000
   778 O146     0.8846   9.9804  19.0583   O.3       1 RES1   0.0000
   779 O147     8.0328   9.9804  25.5287   O.3       1 RES1   0.0000
   780 O148     8.0328  16.7718  19.0583   O.3       1 RES1   0.0000
   781 O149     7.6939   0.8846  34.6066   O.3       1 RES1   0.0000
   782 O150     1.2235   0.8846  27.8152   O.3       1 RES1   0.0000
   783 O151     7.6939   8.0328  27.8152   O.3       1 RES1   0.0000
   784 O152     1.2235   8.0328  34.6066   O.3       1 RES1   0.0000
   785 O155     7.5174   7.5174  25.3522   O.3       1 RES1   0.0000
   786 O156     1.4000   1.4000  25.3522   O.3       1 RES1   0.0000
   787 O157    16.4348  10.3174  34.2696   O.3       1 RES1   0.0000
   788 O158    10.3174  16.4348  34.2696   O.3       1 RES1   0.0000
   789 O159    10.3174  10.3174  28.1522   O.3       1 RES1   0.0000
   790 O160    16.4348  16.4348  28.1522   O.3       1 RES1   0.0000
   791 Zr1      2.4585   9.1159  35.8815   Zr        1 RES1   0.0000
   792 Zr1     20.2933   9.1159  18.0467   Zr        1 RES1   0.0000
   793 Zr2      6.4589  -0.1985  35.8815   Zr        1 RES1   0.0000
   794 Zr2      6.4589  17.6363  35.8815   Zr        1 RES1   0.0000
   795 Zr4      2.4585  -0.1985  26.5403   Zr        1 RES1   0.0000
   796 Zr4     20.2933  -0.1985  26.5403   Zr        1 RES1   0.0000
   797 Zr4     20.2933  17.6363  26.5403   Zr        1 RES1   0.0000
   798 Zr5      0.2119  20.2933  26.9507   Zr        1 RES1   0.0000
   799 Zr5     18.0467   2.4585  26.9507   Zr        1 RES1   0.0000
   800 Zr6     18.0467   6.4589  35.4711   Zr        1 RES1   0.0000
   801 Zr8      8.7055  20.2933  35.4711   Zr        1 RES1   0.0000
   802 Zr9      9.1159   0.2119  38.1281   Zr        1 RES1   0.0000
   803 Zr9      9.1159  18.0467  20.2933   Zr        1 RES1   0.0000
   804 Zr10    -0.1985   0.2119  24.2937   Zr        1 RES1   0.0000
   805 Zr10    -0.1985  18.0467  24.2937   Zr        1 RES1   0.0000
   806 Zr10    17.6363  18.0467  24.2937   Zr        1 RES1   0.0000
   807 Zr12    -0.1985   8.7055  38.1281   Zr        1 RES1   0.0000
   808 Zr12    17.6363   8.7055  38.1281   Zr        1 RES1   0.0000
   809 Zr13    -2.4585   8.7189  35.4577   Zr        1 RES1   0.0000
   810 Zr14    11.3759  18.0333  35.4577   Zr        1 RES1   0.0000
   811 Zr16    -2.4585   0.1985  26.9641   Zr        1 RES1   0.0000
   812 Zr16    -2.4585  18.0333  26.9641   Zr        1 RES1   0.0000
   813 Zr16    15.3763  18.0333  26.9641   Zr        1 RES1   0.0000
   814 Zr17    -0.2119  15.3763  26.5537   Zr        1 RES1   0.0000
   815 Zr17    17.6229  -2.4585  26.5537   Zr        1 RES1   0.0000
   816 Zr18    -0.2119  11.3759  35.8681   Zr        1 RES1   0.0000
   817 Zr18    17.6229  11.3759  35.8681   Zr        1 RES1   0.0000
   818 Zr20     9.1293  -2.4585  35.8681   Zr        1 RES1   0.0000
   819 Zr20     9.1293  15.3763  35.8681   Zr        1 RES1   0.0000
   820 Zr21     8.7189  -0.2119  33.2111   Zr        1 RES1   0.0000
   821 Zr22     0.1985  -0.2119  29.2107   Zr        1 RES1   0.0000
   822 Zr22    18.0333  -0.2119  29.2107   Zr        1 RES1   0.0000
   823 Zr22    18.0333  17.6229  29.2107   Zr        1 RES1   0.0000
   824 Zr24    18.0333   9.1293  33.2111   Zr        1 RES1   0.0000
   825 O2       5.1899  19.4667  17.9775   O.co2     1 RES1   0.0000
   826 O4       3.7275  19.4667  26.6095   O.co2     1 RES1   0.0000
   827 O6       0.1427   5.1899  37.3015   O.co2     1 RES1   0.0000
   828 O8       8.7747   3.7275  37.3015   O.co2     1 RES1   0.0000
   829 O10     19.4667   0.1427  23.0247   O.co2     1 RES1   0.0000
   830 O12     19.4667   8.7747  21.5623   O.co2     1 RES1   0.0000
   831 O14     12.6449  -1.6319  35.5269   O.2       1 RES1   0.0000
   832 O16     14.1073  -1.6319  26.8949   O.2       1 RES1   0.0000
   833 O22     -1.6319  17.6921  30.4797   O.2       1 RES1   0.0000
   834 O24     -1.6319   9.0601  31.9421   O.2       1 RES1   0.0000
   835 O50      5.5359  17.7046  20.0873   O.co2     1 RES1   0.0000
   836 O52      3.3815  17.7046  24.4997   O.co2     1 RES1   0.0000
   837 O54      2.2525   5.5359  35.5394   O.co2     1 RES1   0.0000
   838 O56      6.6649   3.3815  35.5394   O.co2     1 RES1   0.0000
   839 O58     17.7046   2.2525  23.3707   O.co2     1 RES1   0.0000
   840 O60     17.7046   6.6649  21.2163   O.co2     1 RES1   0.0000
   841 O62     12.2989   0.1302  33.4171   O.2       1 RES1   0.0000
   842 O64     14.4533   0.1302  29.0047   O.2       1 RES1   0.0000
   843 O70      0.1302  15.5823  30.1337   O.2       1 RES1   0.0000
   844 O72      0.1302  11.1699  32.2881   O.2       1 RES1   0.0000
   845 O77     -1.6158   3.7239  27.1785   O.2       1 RES1   0.0000
   846 O78     -1.6158   5.1935  35.2433   O.2       1 RES1   0.0000
   847 O81      9.3437  -1.6158  21.5587   O.2       1 RES1   0.0000
   848 O82     17.4085  -1.6158  23.0283   O.2       1 RES1   0.0000
   849 O85     14.1109   8.4911  37.2854   O.co2     1 RES1   0.0000
   850 O86     12.6413   0.4263  37.2854   O.co2     1 RES1   0.0000
   851 O89     19.4506  14.1109  26.3259   O.co2     1 RES1   0.0000
   852 O90     19.4506  12.6413  18.2611   O.co2     1 RES1   0.0000
   853 O93      8.4911  19.4506  31.9457   O.co2     1 RES1   0.0000
   854 O94      0.4263  19.4506  30.4761   O.co2     1 RES1   0.0000
   855 O97     19.1992  10.5529  16.6809   O.3       1 RES1   0.0000
   856 O100    19.1992  16.1993  27.9061   O.3       1 RES1   0.0000
   857 O101    -1.1539   1.3644  28.3877   O.3       1 RES1   0.0000
   858 O101    -1.1539  19.1992  28.3877   O.3       1 RES1   0.0000
   859 O102    -1.1539   7.5530  34.0341   O.3       1 RES1   0.0000
   860 O104    10.0713  19.1992  34.0341   O.3       1 RES1   0.0000
   861 O105    10.5529  -1.1539  37.0340   O.3       1 RES1   0.0000
   862 O106    16.1993  -1.1539  25.3878   O.3       1 RES1   0.0000
   863 O108    16.1993  10.0713  37.0340   O.3       1 RES1   0.0000
   864 O109    -1.3644   7.2819  36.8235   O.3       1 RES1   0.0000
   865 O109    16.4704   7.2819  36.8235   O.3       1 RES1   0.0000
   866 O110    10.2818   1.6355  36.8235   O.3       1 RES1   0.0000
   867 O112    -1.3644   1.6355  25.5983   O.3       1 RES1   0.0000
   868 O113    18.9887  -1.3644  25.1167   O.3       1 RES1   0.0000
   869 O113    18.9887  16.4704  25.1167   O.3       1 RES1   0.0000
   870 O114    18.9887  10.2818  19.4703   O.3       1 RES1   0.0000
   871 O116     7.7635  -1.3644  19.4703   O.3       1 RES1   0.0000
   872 O117     7.2819  18.9887  34.3052   O.3       1 RES1   0.0000
   873 O118     1.6355  18.9887  28.1166   O.3       1 RES1   0.0000
   874 O121     1.0630   7.8544  36.7326   O.3       1 RES1   0.0000
   875 O121    18.8978   7.8544  18.8978   O.3       1 RES1   0.0000
   876 O122     7.8544   1.0630  36.7326   O.3       1 RES1   0.0000
   877 O122     7.8544  18.8978  18.8978   O.3       1 RES1   0.0000
   878 O124     1.0630  18.8978  25.6892   O.3       1 RES1   0.0000
   879 O124    18.8978   1.0630  25.6892   O.3       1 RES1   0.0000
   880 O125    -1.0630   9.9804  34.6066   O.3       1 RES1   0.0000
   881 O126     9.9804  -1.0630  34.6066   O.3       1 RES1   0.0000
   882 O128    -1.0630  16.7718  27.8152   O.3       1 RES1   0.0000
   883 O128    16.7718  -1.0630  27.8152   O.3       1 RES1   0.0000
   884 O129    18.8978  10.1409  16.9502   O.3       1 RES1   0.0000
   885 O132    18.8978  16.6113  27.6368   O.3       1 RES1   0.0000
   886 O133    -0.8846   1.0630  27.9757   O.3       1 RES1   0.0000
   887 O133    -0.8846  18.8978  27.9757   O.3       1 RES1   0.0000
   888 O134    -0.8846   7.8544  34.4461   O.3       1 RES1   0.0000
   889 O136     9.8020  18.8978  34.4461   O.3       1 RES1   0.0000
   890 O137    10.1409  -0.8846  36.7326   O.3       1 RES1   0.0000
   891 O138    16.6113  -0.8846  25.6892   O.3       1 RES1   0.0000
   892 O140    16.6113   9.8020  36.7326   O.3       1 RES1   0.0000
   893 O141    -1.0630   7.6939  36.5542   O.3       1 RES1   0.0000
   894 O141    16.7718   7.6939  36.5542   O.3       1 RES1   0.0000
   895 O142     9.9804   1.2235  36.5542   O.3       1 RES1   0.0000
   896 O144    -1.0630   1.2235  25.8676   O.3       1 RES1   0.0000
   897 O145    18.7194  -1.0630  25.5287   O.3       1 RES1   0.0000
   898 O145    18.7194  16.7718  25.5287   O.3       1 RES1   0.0000
   899 O146    18.7194   9.9804  19.0583   O.3       1 RES1   0.0000
   900 O148     8.0328  -1.0630  19.0583   O.3       1 RES1   0.0000
   901 O149     7.6939  18.7194  34.6066   O.3       1 RES1   0.0000
   902 O150     1.2235  18.7194  27.8152   O.3       1 RES1   0.0000
   903 O153     1.4000   7.5174  37.0696   O.3       1 RES1   0.0000
   904 O153    19.2348   7.5174  19.2348   O.3       1 RES1   0.0000
   905 O154     7.5174   1.4000  37.0696   O.3       1 RES1   0.0000
   906 O154     7.5174  19.2348  19.2348   O.3       1 RES1   0.0000
   907 O156     1.4000  19.2348  25.3522   O.3       1 RES1   0.0000
   908 O156    19.2348   1.4000  25.3522   O.3       1 RES1   0.0000
   909 O157    -1.4000  10.3174  34.2696   O.3       1 RES1   0.0000
   910 O158    10.3174  -1.4000  34.2696   O.3       1 RES1   0.0000
   911 O160    -1.4000  16.4348  28.1522   O.3       1 RES1   0.0000
   912 O160    16.4348  -1.4000  28.1522   O.3       1 RES1   0.0000
   913 Zr3      6.4589   9.1159  44.3751   Zr        1 RES1   0.0000
   914 Zr4      2.4585  17.6363  44.3751   Zr        1 RES1   0.0000
   915 Zr5      0.2119   2.4585  44.7855   Zr        1 RES1   0.0000
   916 Zr6      0.2119   6.4589  53.3059   Zr        1 RES1   0.0000
   917 Zr7      8.7055   6.4589  44.7855   Zr        1 RES1   0.0000
   918 Zr8      8.7055   2.4585  53.3059   Zr        1 RES1   0.0000
   919 Zr10    17.6363   0.2119  42.1285   Zr        1 RES1   0.0000
   920 Zr11     9.1159   8.7055  42.1285   Zr        1 RES1   0.0000
   921 Zr13    15.3763   8.7189  53.2925   Zr        1 RES1   0.0000
   922 Zr14    11.3759   0.1985  53.2925   Zr        1 RES1   0.0000
   923 Zr15    11.3759   8.7189  44.7989   Zr        1 RES1   0.0000
   924 Zr16    15.3763   0.1985  44.7989   Zr        1 RES1   0.0000
   925 Zr17    17.6229  15.3763  44.3885   Zr        1 RES1   0.0000
   926 Zr19     9.1293  11.3759  44.3885   Zr        1 RES1   0.0000
   927 Zr21     8.7189  17.6229  51.0459   Zr        1 RES1   0.0000
   928 Zr22     0.1985  17.6229  47.0455   Zr        1 RES1   0.0000
   929 Zr23     8.7189   9.1293  47.0455   Zr        1 RES1   0.0000
   930 Zr24     0.1985   9.1293  51.0459   Zr        1 RES1   0.0000
   931 O1       3.7275   7.2855  35.8123   O.co2     1 RES1   0.0000
   932 O2       5.1899   1.6319  35.8123   O.co2     1 RES1   0.0000
   933 O3       5.1899   7.2855  44.4443   O.co2     1 RES1   0.0000
   934 O4       3.7275   1.6319  44.4443   O.co2     1 RES1   0.0000
   935 O5       0.1427   3.7275  42.9551   O.co2     1 RES1   0.0000
   936 O7       8.7747   5.1899  42.9551   O.co2     1 RES1   0.0000
   937 O9       7.2855   0.1427  39.3971   O.co2     1 RES1   0.0000
   938 O10      1.6319   0.1427  40.8595   O.co2     1 RES1   0.0000
   939 O11      7.2855   8.7747  40.8595   O.co2     1 RES1   0.0000
   940 O12      1.6319   8.7747  39.3971   O.co2     1 RES1   0.0000
   941 O13     14.1073  10.5493  53.3617   O.co2     1 RES1   0.0000
   942 O14     12.6449  16.2029  53.3617   O.co2     1 RES1   0.0000
   943 O15     12.6449  10.5493  44.7297   O.co2     1 RES1   0.0000
   944 O16     14.1073  16.2029  44.7297   O.co2     1 RES1   0.0000
   945 O17     17.6921  14.1073  46.2189   O.co2     1 RES1   0.0000
   946 O18     17.6921  12.6449  51.8725   O.co2     1 RES1   0.0000
   947 O19      9.0601  12.6449  46.2189   O.co2     1 RES1   0.0000
   948 O20      9.0601  14.1073  51.8725   O.co2     1 RES1   0.0000
   949 O21     10.5493  17.6921  49.7769   O.co2     1 RES1   0.0000
   950 O22     16.2029  17.6921  48.3145   O.co2     1 RES1   0.0000
   951 O23     10.5493   9.0601  48.3145   O.co2     1 RES1   0.0000
   952 O24     16.2029   9.0601  49.7769   O.co2     1 RES1   0.0000
   953 O25      3.3957  11.1396  36.1083   O.co2     1 RES1   0.0000
   954 O26      5.5217  15.6126  36.1083   O.co2     1 RES1   0.0000
   955 O27      5.5217  11.1396  44.1483   O.co2     1 RES1   0.0000
   956 O28      3.3957  15.6126  44.1483   O.co2     1 RES1   0.0000
   957 O29      0.4387   3.3957  46.8092   O.co2     1 RES1   0.0000
   958 O30      0.4387   5.5217  51.2822   O.co2     1 RES1   0.0000
   959 O31      8.4787   5.5217  46.8092   O.co2     1 RES1   0.0000
   960 O32      8.4787   3.3957  51.2822   O.co2     1 RES1   0.0000
   961 O33     11.1396   0.4387  39.0653   O.co2     1 RES1   0.0000
   962 O34     15.6126   0.4387  41.1913   O.co2     1 RES1   0.0000
   963 O35     11.1396   8.4787  41.1913   O.co2     1 RES1   0.0000
   964 O36     15.6126   8.4787  39.0653   O.co2     1 RES1   0.0000
   965 O37     14.4391   6.6952  53.0657   O.co2     1 RES1   0.0000
   966 O38     12.3131   2.2222  53.0657   O.co2     1 RES1   0.0000
   967 O39     12.3131   6.6952  45.0257   O.co2     1 RES1   0.0000
   968 O40     14.4391   2.2222  45.0257   O.co2     1 RES1   0.0000
   969 O41     17.3961  14.4391  42.3648   O.co2     1 RES1   0.0000
   970 O42     17.3961  12.3131  37.8918   O.co2     1 RES1   0.0000
   971 O43      9.3561  12.3131  42.3648   O.co2     1 RES1   0.0000
   972 O44      9.3561  14.4391  37.8918   O.co2     1 RES1   0.0000
   973 O45      6.6952  17.3961  50.1087   O.co2     1 RES1   0.0000
   974 O46      2.2222  17.3961  47.9827   O.co2     1 RES1   0.0000
   975 O47      6.6952   9.3561  47.9827   O.co2     1 RES1   0.0000
   976 O48      2.2222   9.3561  50.1087   O.co2     1 RES1   0.0000
   977 O49      3.3815   9.0476  37.9221   O.co2     1 RES1   0.0000
   978 O50      5.5359  -0.1302  37.9221   O.co2     1 RES1   0.0000
   979 O51      5.5359   9.0476  42.3345   O.co2     1 RES1   0.0000
   980 O52      3.3815  -0.1302  42.3345   O.co2     1 RES1   0.0000
   981 O53      2.2525   3.3815  44.7172   O.co2     1 RES1   0.0000
   982 O55      6.6649   5.5359  44.7172   O.co2     1 RES1   0.0000
   983 O57      9.0476   2.2525  39.0511   O.co2     1 RES1   0.0000
   984 O58     -0.1302   2.2525  41.2055   O.co2     1 RES1   0.0000
   985 O59      9.0476   6.6649  41.2055   O.co2     1 RES1   0.0000
   986 O60     -0.1302   6.6649  39.0511   O.co2     1 RES1   0.0000
   987 O61     14.4533   8.7872  51.2519   O.co2     1 RES1   0.0000
   988 O62     12.2989  17.9650  51.2519   O.co2     1 RES1   0.0000
   989 O63     12.2989   8.7872  46.8395   O.co2     1 RES1   0.0000
   990 O64     14.4533  17.9650  46.8395   O.co2     1 RES1   0.0000
   991 O65     15.5823  14.4533  44.4568   O.co2     1 RES1   0.0000
   992 O66     15.5823  12.2989  53.6346   O.co2     1 RES1   0.0000
   993 O67     11.1699  12.2989  44.4568   O.co2     1 RES1   0.0000
   994 O68     11.1699  14.4533  53.6346   O.co2     1 RES1   0.0000
   995 O69      8.7872  15.5823  50.1229   O.co2     1 RES1   0.0000
   996 O70     17.9650  15.5823  47.9685   O.co2     1 RES1   0.0000
   997 O71      8.7872  11.1699  47.9685   O.co2     1 RES1   0.0000
   998 O72     17.9650  11.1699  50.1229   O.co2     1 RES1   0.0000
   999 O73      3.7239   9.3437  51.8886   O.co2     1 RES1   0.0000
  1000 O74      5.1935  17.4085  51.8886   O.co2     1 RES1   0.0000
  1001 O75      5.1935   9.3437  46.2028   O.co2     1 RES1   0.0000
  1002 O76      3.7239  17.4085  46.2028   O.co2     1 RES1   0.0000
  1003 O77     16.2190   3.7239  45.0133   O.co2     1 RES1   0.0000
  1004 O78     16.2190   5.1935  53.0781   O.co2     1 RES1   0.0000
  1005 O79     10.5332   5.1935  45.0133   O.co2     1 RES1   0.0000
  1006 O80     10.5332   3.7239  53.0781   O.co2     1 RES1   0.0000
  1007 O81      9.3437  16.2190  39.3935   O.co2     1 RES1   0.0000
  1008 O82     17.4085  16.2190  40.8631   O.co2     1 RES1   0.0000
  1009 O83      9.3437  10.5332  40.8631   O.co2     1 RES1   0.0000
  1010 O84     17.4085  10.5332  39.3935   O.co2     1 RES1   0.0000
  1011 O87     12.6413   8.4911  42.9712   O.co2     1 RES1   0.0000
  1012 O88     14.1109   0.4263  42.9712   O.co2     1 RES1   0.0000
  1013 O89      1.6158  14.1109  44.1607   O.co2     1 RES1   0.0000
  1014 O90      1.6158  12.6413  36.0959   O.co2     1 RES1   0.0000
  1015 O91      7.3016  12.6413  44.1607   O.co2     1 RES1   0.0000
  1016 O92      7.3016  14.1109  36.0959   O.co2     1 RES1   0.0000
  1017 O93      8.4911   1.6158  49.7805   O.co2     1 RES1   0.0000
  1018 O94      0.4263   1.6158  48.3109   O.co2     1 RES1   0.0000
  1019 O95      8.4911   7.3016  48.3109   O.co2     1 RES1   0.0000
  1020 O96      0.4263   7.3016  49.7805   O.co2     1 RES1   0.0000
  1021 C1       2.8607  12.2900  36.0976   C.2       1 RES1   0.0000
  1022 C2       6.0567  14.4622  36.0976   C.2       1 RES1   0.0000
  1023 C3       6.0567  12.2900  44.1590   C.2       1 RES1   0.0000
  1024 C4       2.8607  14.4622  44.1590   C.2       1 RES1   0.0000
  1025 C5       0.4280   2.8607  47.9596   C.2       1 RES1   0.0000
  1026 C6       0.4280   6.0567  50.1318   C.2       1 RES1   0.0000
  1027 C7       8.4894   6.0567  47.9596   C.2       1 RES1   0.0000
  1028 C8       8.4894   2.8607  50.1318   C.2       1 RES1   0.0000
  1029 C9      12.2900   0.4280  38.5303   C.2       1 RES1   0.0000
  1030 C10     14.4622   0.4280  41.7263   C.2       1 RES1   0.0000
  1031 C11     12.2900   8.4894  41.7263   C.2       1 RES1   0.0000
  1032 C12     14.4622   8.4894  38.5303   C.2       1 RES1   0.0000
  1033 C13     14.9741   5.5448  53.0764   C.2       1 RES1   0.0000
  1034 C14     11.7781   3.3726  53.0764   C.2       1 RES1   0.0000
  1035 C15     11.7781   5.5448  45.0150   C.2       1 RES1   0.0000
  1036 C16     14.9741   3.3726  45.0150   C.2       1 RES1   0.0000
  1037 C17     17.4068  14.9741  41.2144   C.2       1 RES1   0.0000
  1038 C18     17.4068  11.7781  39.0422   C.2       1 RES1   0.0000
  1039 C19      9.3454  11.7781  41.2144   C.2       1 RES1   0.0000
  1040 C20      9.3454  14.9741  39.0422   C.2       1 RES1   0.0000
  1041 C21      5.5448  17.4068  50.6437   C.2       1 RES1   0.0000
  1042 C22      3.3726  17.4068  47.4477   C.2       1 RES1   0.0000
  1043 C23      5.5448   9.3454  47.4477   C.2       1 RES1   0.0000
  1044 C24      3.3726   9.3454  50.6437   C.2       1 RES1   0.0000
  1045 C25      3.8202  13.4742  36.1030   C.2       1 RES1   0.0000
  1046 C26      5.0972  13.2780  36.1030   C.2       1 RES1   0.0000
  1047 C27      5.0972  13.4742  44.1536   C.2       1 RES1   0.0000
  1048 C28      3.8202  13.2780  44.1536   C.2       1 RES1   0.0000
  1049 C29      0.4334   3.8202  49.1438   C.2       1 RES1   0.0000
  1050 C30      0.4334   5.0972  48.9476   C.2       1 RES1   0.0000
  1051 C31      8.4840   5.0972  49.1438   C.2       1 RES1   0.0000
  1052 C32      8.4840   3.8202  48.9476   C.2       1 RES1   0.0000
  1053 C33     13.4742   0.4334  39.4898   C.2       1 RES1   0.0000
  1054 C34     13.2780   0.4334  40.7668   C.2       1 RES1   0.0000
  1055 C35     13.4742   8.4840  40.7668   C.2       1 RES1   0.0000
  1056 C36     13.2780   8.4840  39.4898   C.2       1 RES1   0.0000
  1057 C37     14.0146   4.3606  53.0710   C.2       1 RES1   0.0000
  1058 C38     12.7376   4.5568  53.0710   C.2       1 RES1   0.0000
  1059 C39     12.7376   4.3606  45.0204   C.2       1 RES1   0.0000
  1060 C40     14.0146   4.5568  45.0204   C.2       1 RES1   0.0000
  1061 C41     17.4014  14.0146  40.0302   C.2       1 RES1   0.0000
  1062 C42     17.4014  12.7376  40.2264   C.2       1 RES1   0.0000
  1063 C43      9.3508  12.7376  40.0302   C.2       1 RES1   0.0000
  1064 C44      9.3508  14.0146  40.2264   C.2       1 RES1   0.0000
  1065 C45      4.3606  17.4014  49.6842   C.2       1 RES1   0.0000
  1066 C46      4.5568  17.4014  48.4072   C.2       1 RES1   0.0000
  1067 C47      4.3606   9.3508  48.4072   C.2       1 RES1   0.0000
  1068 C48      4.5568   9.3508  49.6842   C.2       1 RES1   0.0000
  1069 H1       3.4867  14.3427  36.1048   H         1 RES1   0.0000
  1070 H2       5.4307  12.4095  36.1048   H         1 RES1   0.0000
  1071 H3       5.4307  14.3427  44.1518   H         1 RES1   0.0000
  1072 H4       3.4867  12.4095  44.1518   H         1 RES1   0.0000
  1073 H5       0.4352   3.4867  50.0123   H         1 RES1   0.0000
  1074 H6       0.4352   5.4307  48.0791   H         1 RES1   0.0000
  1075 H7       8.4822   5.4307  50.0123   H         1 RES1   0.0000
  1076 H8       8.4822   3.4867  48.0791   H         1 RES1   0.0000
  1077 H9      14.3427   0.4352  39.1563   H         1 RES1   0.0000
  1078 H10     12.4095   0.4352  41.1003   H         1 RES1   0.0000
  1079 H11     14.3427   8.4822  41.1003   H         1 RES1   0.0000
  1080 H12     12.4095   8.4822  39.1563   H         1 RES1   0.0000
  1081 H13     14.3481   3.4921  53.0692   H         1 RES1   0.0000
  1082 H14     12.4041   5.4253  53.0692   H         1 RES1   0.0000
  1083 H15     12.4041   3.4921  45.0222   H         1 RES1   0.0000
  1084 H16     14.3481   5.4253  45.0222   H         1 RES1   0.0000
  1085 H17     17.3996  14.3481  39.1617   H         1 RES1   0.0000
  1086 H18     17.3996  12.4041  41.0949   H         1 RES1   0.0000
  1087 H19      9.3526  12.4041  39.1617   H         1 RES1   0.0000
  1088 H20      9.3526  14.3481  41.0949   H         1 RES1   0.0000
  1089 H21      3.4921  17.3996  50.0177   H         1 RES1   0.0000
  1090 H22      5.4253  17.3996  48.0737   H         1 RES1   0.0000
  1091 H23      3.4921   9.3526  48.0737   H         1 RES1   0.0000
  1092 H24      5.4253   9.3526  50.0177   H         1 RES1   0.0000
  1093 C49      3.3993   6.0603  35.6696   C.2       1 RES1   0.0000
  1094 C50      5.5181   2.8571  35.6696   C.2       1 RES1   0.0000
  1095 C51      5.5181   6.0603  44.5870   C.2       1 RES1   0.0000
  1096 C52      3.3993   2.8571  44.5870   C.2       1 RES1   0.0000
  1097 C53      0.0000   3.3993  41.7299   C.2       1 RES1   0.0000
  1098 C54      0.0000   5.5181  38.5267   C.2       1 RES1   0.0000
  1099 C55      8.9174   5.5181  41.7299   C.2       1 RES1   0.0000
  1100 C56      8.9174   3.3993  38.5267   C.2       1 RES1   0.0000
  1101 C57      6.0603   0.0000  39.0689   C.2       1 RES1   0.0000
  1102 C58      2.8571   0.0000  41.1877   C.2       1 RES1   0.0000
  1103 C59      6.0603   8.9174  41.1877   C.2       1 RES1   0.0000
  1104 C60      2.8571   8.9174  39.0689   C.2       1 RES1   0.0000
  1105 C61     14.4355  11.7745  53.5044   C.2       1 RES1   0.0000
  1106 C62     12.3167  14.9777  53.5044   C.2       1 RES1   0.0000
  1107 C63     12.3167  11.7745  44.5870   C.2       1 RES1   0.0000
  1108 C64     14.4355  14.9777  44.5870   C.2       1 RES1   0.0000
  1109 C65     17.8348  14.4355  47.4441   C.2       1 RES1   0.0000
  1110 C66     17.8348  12.3167  50.6473   C.2       1 RES1   0.0000
  1111 C67      8.9174  12.3167  47.4441   C.2       1 RES1   0.0000
  1112 C68      8.9174  14.4355  50.6473   C.2       1 RES1   0.0000
  1113 C69     11.7745  17.8348  50.1051   C.2       1 RES1   0.0000
  1114 C70     14.9777  17.8348  47.9863   C.2       1 RES1   0.0000
  1115 C71     11.7745   8.9174  47.9863   C.2       1 RES1   0.0000
  1116 C72     14.9777   8.9174  50.1051   C.2       1 RES1   0.0000
  1117 C73      4.5782   5.1097  35.6714   C.2       1 RES1   0.0000
  1118 C74      4.3392   3.8077  35.6714   C.2       1 RES1   0.0000
  1119 C75      4.3392   5.1097  44.5852   C.2       1 RES1   0.0000
  1120 C76      4.5782   3.8077  44.5852   C.2       1 RES1   0.0000
  1121 C77      0.0018   4.5782  40.7793   C.2       1 RES1   0.0000
  1122 C78      0.0018   4.3392  39.4773   C.2       1 RES1   0.0000
  1123 C79      8.9156   4.3392  40.7793   C.2       1 RES1   0.0000
  1124 C80      8.9156   4.5782  39.4773   C.2       1 RES1   0.0000
  1125 C81      5.1097   0.0018  40.2478   C.2       1 RES1   0.0000
  1126 C82      3.8077   0.0018  40.0088   C.2       1 RES1   0.0000
  1127 C83      5.1097   8.9156  40.0088   C.2       1 RES1   0.0000
  1128 C84      3.8077   8.9156  40.2478   C.2       1 RES1   0.0000
  1129 C85     13.2566  12.7251  53.5026   C.2       1 RES1   0.0000
  1130 C86     13.4956  14.0271  53.5026   C.2       1 RES1   0.0000
  1131 C87     13.4956  12.7251  44.5888   C.2       1 RES1   0.0000
  1132 C88     13.2566  14.0271  44.5888   C.2       1 RES1   0.0000
  1133 C89     17.8330  13.2566  48.3947   C.2       1 RES1   0.0000
  1134 C90     17.8330  13.4956  49.6967   C.2       1 RES1   0.0000
  1135 C91      8.9192  13.4956  48.3947   C.2       1 RES1   0.0000
  1136 C92      8.9192  13.2566  49.6967   C.2       1 RES1   0.0000
  1137 C93     12.7251  17.8330  48.9262   C.2       1 RES1   0.0000
  1138 C94     14.0271  17.8330  49.1652   C.2       1 RES1   0.0000
  1139 C95     12.7251   8.9192  49.1652   C.2       1 RES1   0.0000
  1140 C96     14.0271   8.9192  48.9262   C.2       1 RES1   0.0000
  1141 H25      5.4503   5.4325  35.6714   H         1 RES1   0.0000
  1142 H26      3.4671   3.4849  35.6714   H         1 RES1   0.0000
  1143 H27      3.4671   5.4325  44.5852   H         1 RES1   0.0000
  1144 H28      5.4503   3.4849  44.5852   H         1 RES1   0.0000
  1145 H29      0.0018   5.4503  41.1021   H         1 RES1   0.0000
  1146 H30      0.0018   3.4671  39.1545   H         1 RES1   0.0000
  1147 H31      8.9156   3.4671  41.1021   H         1 RES1   0.0000
  1148 H32      8.9156   5.4503  39.1545   H         1 RES1   0.0000
  1149 H33      5.4325   0.0018  41.1199   H         1 RES1   0.0000
  1150 H34      3.4849   0.0018  39.1367   H         1 RES1   0.0000
  1151 H35      5.4325   8.9156  39.1367   H         1 RES1   0.0000
  1152 H36      3.4849   8.9156  41.1199   H         1 RES1   0.0000
  1153 H37     12.3845  12.4023  53.5026   H         1 RES1   0.0000
  1154 H38     14.3677  14.3499  53.5026   H         1 RES1   0.0000
  1155 H39     14.3677  12.4023  44.5888   H         1 RES1   0.0000
  1156 H40     12.3845  14.3499  44.5888   H         1 RES1   0.0000
  1157 H41     17.8330  12.3845  48.0719   H         1 RES1   0.0000
  1158 H42     17.8330  14.3677  50.0195   H         1 RES1   0.0000
  1159 H43      8.9192  14.3677  48.0719   H         1 RES1   0.0000
  1160 H44      8.9192  12.3845  50.0195   H         1 RES1   0.0000
  1161 H45     12.4023  17.8330  48.0541   H         1 RES1   0.0000
  1162 H46     14.3499  17.8330  50.0373   H         1 RES1   0.0000
  1163 H47     12.4023   8.9192  50.0373   H         1 RES1   0.0000
  1164 H48     14.3499   8.9192  48.0541   H         1 RES1   0.0000
  1165 O97      1.3644  10.5529  52.3505   O.3       1 RES1   0.0000
  1166 O98      7.5530  16.1993  52.3505   O.3       1 RES1   0.0000
  1167 O99      7.5530  10.5529  45.7409   O.3       1 RES1   0.0000
  1168 O100     1.3644  16.1993  45.7409   O.3       1 RES1   0.0000
  1169 O101    16.6809   1.3644  46.2225   O.3       1 RES1   0.0000
  1170 O102    16.6809   7.5530  51.8689   O.3       1 RES1   0.0000
  1171 O103    10.0713   7.5530  46.2225   O.3       1 RES1   0.0000
  1172 O104    10.0713   1.3644  51.8689   O.3       1 RES1   0.0000
  1173 O105    10.5529  16.6809  37.0340   O.3       1 RES1   0.0000
  1174 O106    16.1993  16.6809  43.2226   O.3       1 RES1   0.0000
  1175 O107    10.5529  10.0713  43.2226   O.3       1 RES1   0.0000
  1176 O111    10.2818   7.2819  43.4331   O.3       1 RES1   0.0000
  1177 O112    16.4704   1.6355  43.4331   O.3       1 RES1   0.0000
  1178 O113     1.1539  16.4704  42.9515   O.3       1 RES1   0.0000
  1179 O114     1.1539  10.2818  37.3051   O.3       1 RES1   0.0000
  1180 O115     7.7635  10.2818  42.9515   O.3       1 RES1   0.0000
  1181 O116     7.7635  16.4704  37.3051   O.3       1 RES1   0.0000
  1182 O117     7.2819   1.1539  52.1400   O.3       1 RES1   0.0000
  1183 O118     1.6355   1.1539  45.9514   O.3       1 RES1   0.0000
  1184 O119     7.2819   7.7635  45.9514   O.3       1 RES1   0.0000
  1185 O120     1.6355   7.7635  52.1400   O.3       1 RES1   0.0000
  1186 O123     7.8544   7.8544  43.5240   O.3       1 RES1   0.0000
  1187 O124     1.0630   1.0630  43.5240   O.3       1 RES1   0.0000
  1188 O125    16.7718   9.9804  52.4414   O.3       1 RES1   0.0000
  1189 O126     9.9804  16.7718  52.4414   O.3       1 RES1   0.0000
  1190 O127     9.9804   9.9804  45.6500   O.3       1 RES1   0.0000
  1191 O128    16.7718  16.7718  45.6500   O.3       1 RES1   0.0000
  1192 O129     1.0630  10.1409  52.6198   O.3       1 RES1   0.0000
  1193 O130     7.8544  16.6113  52.6198   O.3       1 RES1   0.0000
  1194 O131     7.8544  10.1409  45.4716   O.3       1 RES1   0.0000
  1195 O132     1.0630  16.6113  45.4716   O.3       1 RES1   0.0000
  1196 O133    16.9502   1.0630  45.8105   O.3       1 RES1   0.0000
  1197 O134    16.9502   7.8544  52.2809   O.3       1 RES1   0.0000
  1198 O135     9.8020   7.8544  45.8105   O.3       1 RES1   0.0000
  1199 O136     9.8020   1.0630  52.2809   O.3       1 RES1   0.0000
  1200 O137    10.1409  16.9502  36.7326   O.3       1 RES1   0.0000
  1201 O138    16.6113  16.9502  43.5240   O.3       1 RES1   0.0000
  1202 O139    10.1409   9.8020  43.5240   O.3       1 RES1   0.0000
  1203 O143     9.9804   7.6939  43.7024   O.3       1 RES1   0.0000
  1204 O144    16.7718   1.2235  43.7024   O.3       1 RES1   0.0000
  1205 O145     0.8846  16.7718  43.3635   O.3       1 RES1   0.0000
  1206 O146     0.8846   9.9804  36.8931   O.3       1 RES1   0.0000
  1207 O147     8.0328   9.9804  43.3635   O.3       1 RES1   0.0000
  1208 O148     8.0328  16.7718  36.8931   O.3       1 RES1   0.0000
  1209 O149     7.6939   0.8846  52.4414   O.3       1 RES1   0.0000
  1210 O150     1.2235   0.8846  45.6500   O.3       1 RES1   0.0000
  1211 O151     7.6939   8.0328  45.6500   O.3       1 RES1   0.0000
  1212 O152     1.2235   8.0328  52.4414   O.3       1 RES1   0.0000
  1213 O155     7.5174   7.5174  43.1870   O.3       1 RES1   0.0000
  1214 O156     1.4000   1.4000  43.1870   O.3       1 RES1   0.0000
  1215 O157    16.4348  10.3174  52.1044   O.3       1 RES1   0.0000
  1216 O158    10.3174  16.4348  52.1044   O.3       1 RES1   0.0000
  1217 O159    10.3174  10.3174  45.9870   O.3       1 RES1   0.0000
  1218 O160    16.4348  16.4348  45.9870   O.3       1 RES1   0.0000
  1219 Zr1      2.4585   9.1159  53.7163   Zr        1 RES1   0.0000
  1220 Zr1     20.2933   9.1159  35.8815   Zr        1 RES1   0.0000
  1221 Zr2      6.4589  -0.1985  53.7163   Zr        1 RES1   0.0000
  1222 Zr2      6.4589  17.6363  53.7163   Zr        1 RES1   0.0000
  1223 Zr4      2.4585  -0.1985  44.3751   Zr        1 RES1   0.0000
  1224 Zr4     20.2933  -0.1985  44.3751   Zr        1 RES1   0.0000
  1225 Zr4     20.2933  17.6363  44.3751   Zr        1 RES1   0.0000
  1226 Zr5      0.2119  20.2933  44.7855   Zr        1 RES1   0.0000
  1227 Zr5     18.0467   2.4585  44.7855   Zr        1 RES1   0.0000
  1228 Zr6     18.0467   6.4589  53.3059   Zr        1 RES1   0.0000
  1229 Zr8      8.7055  20.2933  53.3059   Zr        1 RES1   0.0000
  1230 Zr9      9.1159   0.2119  55.9629   Zr        1 RES1   0.0000
  1231 Zr9      9.1159  18.0467  38.1281   Zr        1 RES1   0.0000
  1232 Zr10    -0.1985   0.2119  42.1285   Zr        1 RES1   0.0000
  1233 Zr10    -0.1985  18.0467  42.1285   Zr        1 RES1   0.0000
  1234 Zr10    17.6363  18.0467  42.1285   Zr        1 RES1   0.0000
  1235 Zr12    -0.1985   8.7055  55.9629   Zr        1 RES1   0.0000
  1236 Zr12    17.6363   8.7055  55.9629   Zr        1 RES1   0.0000
  1237 Zr13    -2.4585   8.7189  53.2925   Zr        1 RES1   0.0000
  1238 Zr14    11.3759  18.0333  53.2925   Zr        1 RES1   0.0000
  1239 Zr16    -2.4585   0.1985  44.7989   Zr        1 RES1   0.0000
  1240 Zr16    -2.4585  18.0333  44.7989   Zr        1 RES1   0.0000
  1241 Zr16    15.3763  18.0333  44.7989   Zr        1 RES1   0.0000
  1242 Zr17    -0.2119  15.3763  44.3885   Zr        1 RES1   0.0000
  1243 Zr17    17.6229  -2.4585  44.3885   Zr        1 RES1   0.0000
  1244 Zr18    -0.2119  11.3759  53.7029   Zr        1 RES1   0.0000
  1245 Zr18    17.6229  11.3759  53.7029   Zr        1 RES1   0.0000
  1246 Zr20     9.1293  -2.4585  53.7029   Zr        1 RES1   0.0000
  1247 Zr20     9.1293  15.3763  53.7029   Zr        1 RES1   0.0000
  1248 Zr21     8.7189  -0.2119  51.0459   Zr        1 RES1   0.0000
  1249 Zr22     0.1985  -0.2119  47.0455   Zr        1 RES1   0.0000
  1250 Zr22    18.0333  -0.2119  47.0455   Zr        1 RES1   0.0000
  1251 Zr22    18.0333  17.6229  47.0455   Zr        1 RES1   0.0000
  1252 Zr24    18.0333   9.1293  51.0459   Zr        1 RES1   0.0000
  1253 O2       5.1899  19.4667  35.8123   O.co2     1 RES1   0.0000
  1254 O4       3.7275  19.4667  44.4443   O.co2     1 RES1   0.0000
  1255 O6       0.1427   5.1899  55.1363   O.2       1 RES1   0.0000
  1256 O8       8.7747   3.7275  55.1363   O.2       1 RES1   0.0000
  1257 O10     19.4667   0.1427  40.8595   O.co2     1 RES1   0.0000
  1258 O12     19.4667   8.7747  39.3971   O.co2     1 RES1   0.0000
  1259 O14     12.6449  -1.6319  53.3617   O.2       1 RES1   0.0000
  1260 O16     14.1073  -1.6319  44.7297   O.2       1 RES1   0.0000
  1261 O22     -1.6319  17.6921  48.3145   O.2       1 RES1   0.0000
  1262 O24     -1.6319   9.0601  49.7769   O.2       1 RES1   0.0000
  1263 O50      5.5359  17.7046  37.9221   O.co2     1 RES1   0.0000
  1264 O52      3.3815  17.7046  42.3345   O.co2     1 RES1   0.0000
  1265 O54      2.2525   5.5359  53.3742   O.2       1 RES1   0.0000
  1266 O56      6.6649   3.3815  53.3742   O.2       1 RES1   0.0000
  1267 O58     17.7046   2.2525  41.2055   O.co2     1 RES1   0.0000
  1268 O60     17.7046   6.6649  39.0511   O.co2     1 RES1   0.0000
  1269 O62     12.2989   0.1302  51.2519   O.2       1 RES1   0.0000
  1270 O64     14.4533   0.1302  46.8395   O.2       1 RES1   0.0000
  1271 O70      0.1302  15.5823  47.9685   O.2       1 RES1   0.0000
  1272 O72      0.1302  11.1699  50.1229   O.2       1 RES1   0.0000
  1273 O77     -1.6158   3.7239  45.0133   O.2       1 RES1   0.0000
  1274 O78     -1.6158   5.1935  53.0781   O.2       1 RES1   0.0000
  1275 O81      9.3437  -1.6158  39.3935   O.2       1 RES1   0.0000
  1276 O82     17.4085  -1.6158  40.8631   O.2       1 RES1   0.0000
  1277 O85     14.1109   8.4911  55.1202   O.2       1 RES1   0.0000
  1278 O86     12.6413   0.4263  55.1202   O.2       1 RES1   0.0000
  1279 O89     19.4506  14.1109  44.1607   O.co2     1 RES1   0.0000
  1280 O90     19.4506  12.6413  36.0959   O.co2     1 RES1   0.0000
  1281 O93      8.4911  19.4506  49.7805   O.co2     1 RES1   0.0000
  1282 O94      0.4263  19.4506  48.3109   O.co2     1 RES1   0.0000
  1283 O97     19.1992  10.5529  34.5157   O.3       1 RES1   0.0000
  1284 O100    19.1992  16.1993  45.7409   O.3       1 RES1   0.0000
  1285 O101    -1.1539   1.3644  46.2225   O.3       1 RES1   0.0000
  1286 O101    -1.1539  19.1992  46.2225   O.3       1 RES1   0.0000
  1287 O102    -1.1539   7.5530  51.8689   O.3       1 RES1   0.0000
  1288 O104    10.0713  19.1992  51.8689   O.3       1 RES1   0.0000
  1289 O105    10.5529  -1.1539  54.8688   O.3       1 RES1   0.0000
  1290 O106    16.1993  -1.1539  43.2226   O.3       1 RES1   0.0000
  1291 O108    16.1993  10.0713  54.8688   O.3       1 RES1   0.0000
  1292 O109    -1.3644   7.2819  54.6583   O.3       1 RES1   0.0000
  1293 O109    16.4704   7.2819  54.6583   O.3       1 RES1   0.0000
  1294 O110    10.2818   1.6355  54.6583   O.3       1 RES1   0.0000
  1295 O112    -1.3644   1.6355  43.4331   O.3       1 RES1   0.0000
  1296 O113    18.9887  -1.3644  42.9515   O.3       1 RES1   0.0000
  1297 O113    18.9887  16.4704  42.9515   O.3       1 RES1   0.0000
  1298 O114    18.9887  10.2818  37.3051   O.3       1 RES1   0.0000
  1299 O116     7.7635  -1.3644  37.3051   O.3       1 RES1   0.0000
  1300 O117     7.2819  18.9887  52.1400   O.3       1 RES1   0.0000
  1301 O118     1.6355  18.9887  45.9514   O.3       1 RES1   0.0000
  1302 O121     1.0630   7.8544  54.5674   O.3       1 RES1   0.0000
  1303 O121    18.8978   7.8544  36.7326   O.3       1 RES1   0.0000
  1304 O122     7.8544   1.0630  54.5674   O.3       1 RES1   0.0000
  1305 O122     7.8544  18.8978  36.7326   O.3       1 RES1   0.0000
  1306 O124     1.0630  18.8978  43.5240   O.3       1 RES1   0.0000
  1307 O124    18.8978   1.0630  43.5240   O.3       1 RES1   0.0000
  1308 O125    -1.0630   9.9804  52.4414   O.3       1 RES1   0.0000
  1309 O126     9.9804  -1.0630  52.4414   O.3       1 RES1   0.0000
  1310 O128    -1.0630  16.7718  45.6500   O.3       1 RES1   0.0000
  1311 O128    16.7718  -1.0630  45.6500   O.3       1 RES1   0.0000
  1312 O129    18.8978  10.1409  34.7850   O.3       1 RES1   0.0000
  1313 O132    18.8978  16.6113  45.4716   O.3       1 RES1   0.0000
  1314 O133    -0.8846   1.0630  45.8105   O.3       1 RES1   0.0000
  1315 O133    -0.8846  18.8978  45.8105   O.3       1 RES1   0.0000
  1316 O134    -0.8846   7.8544  52.2809   O.3       1 RES1   0.0000
  1317 O136     9.8020  18.8978  52.2809   O.3       1 RES1   0.0000
  1318 O137    10.1409  -0.8846  54.5674   O.3       1 RES1   0.0000
  1319 O138    16.6113  -0.8846  43.5240   O.3       1 RES1   0.0000
  1320 O140    16.6113   9.8020  54.5674   O.3       1 RES1   0.0000
  1321 O141    -1.0630   7.6939  54.3890   O.3       1 RES1   0.0000
  1322 O141    16.7718   7.6939  54.3890   O.3       1 RES1   0.0000
  1323 O142     9.9804   1.2235  54.3890   O.3       1 RES1   0.0000
  1324 O144    -1.0630   1.2235  43.7024   O.3       1 RES1   0.0000
  1325 O145    18.7194  -1.0630  43.3635   O.3       1 RES1   0.0000
  1326 O145    18.7194  16.7718  43.3635   O.3       1 RES1   0.0000
  1327 O146    18.7194   9.9804  36.8931   O.3       1 RES1   0.0000
  1328 O148     8.0328  -1.0630  36.8931   O.3       1 RES1   0.0000
  1329 O149     7.6939  18.7194  52.4414   O.3       1 RES1   0.0000
  1330 O150     1.2235  18.7194  45.6500   O.3       1 RES1   0.0000
  1331 O153     1.4000   7.5174  54.9044   O.3       1 RES1   0.0000
  1332 O153    19.2348   7.5174  37.0696   O.3       1 RES1   0.0000
  1333 O154     7.5174   1.4000  54.9044   O.3       1 RES1   0.0000
  1334 O154     7.5174  19.2348  37.0696   O.3       1 RES1   0.0000
  1335 O156     1.4000  19.2348  43.1870   O.3       1 RES1   0.0000
  1336 O156    19.2348   1.4000  43.1870   O.3       1 RES1   0.0000
  1337 O157    -1.4000  10.3174  52.1044   O.3       1 RES1   0.0000
  1338 O158    10.3174  -1.4000  52.1044   O.3       1 RES1   0.0000
  1339 O160    -1.4000  16.4348  45.9870   O.3       1 RES1   0.0000
  1340 O160    16.4348  -1.4000  45.9870   O.3       1 RES1   0.0000
  1341 Zr1      2.4585  26.9507   0.2119   Zr        1 RES1   0.0000
  1342 Zr2      6.4589  35.4711   0.2119   Zr        1 RES1   0.0000
  1343 Zr3      6.4589  26.9507   8.7055   Zr        1 RES1   0.0000
  1344 Zr4      2.4585  35.4711   8.7055   Zr        1 RES1   0.0000
  1345 Zr6      0.2119  24.2937  17.6363   Zr        1 RES1   0.0000
  1346 Zr7      8.7055  24.2937   9.1159   Zr        1 RES1   0.0000
  1347 Zr11     9.1159  26.5403   6.4589   Zr        1 RES1   0.0000
  1348 Zr12    17.6363  26.5403   2.4585   Zr        1 RES1   0.0000
  1349 Zr13    15.3763  26.5537  17.6229   Zr        1 RES1   0.0000
  1350 Zr15    11.3759  26.5537   9.1293   Zr        1 RES1   0.0000
  1351 Zr17    17.6229  33.2111   8.7189   Zr        1 RES1   0.0000
  1352 Zr18    17.6229  29.2107   0.1985   Zr        1 RES1   0.0000
  1353 Zr19     9.1293  29.2107   8.7189   Zr        1 RES1   0.0000
  1354 Zr20     9.1293  33.2111   0.1985   Zr        1 RES1   0.0000
  1355 Zr21     8.7189  35.4577  15.3763   Zr        1 RES1   0.0000
  1356 Zr22     0.1985  35.4577  11.3759   Zr        1 RES1   0.0000
  1357 Zr23     8.7189  26.9641  11.3759   Zr        1 RES1   0.0000
  1358 Zr24     0.1985  26.9641  15.3763   Zr        1 RES1   0.0000
  1359 O1       3.7275  25.1203   0.1427   O.co2     1 RES1   0.0000
  1360 O3       5.1899  25.1203   8.7747   O.co2     1 RES1   0.0000
  1361 O5       0.1427  21.5623   7.2855   O.co2     1 RES1   0.0000
  1362 O6       0.1427  23.0247   1.6319   O.co2     1 RES1   0.0000
  1363 O7       8.7747  23.0247   7.2855   O.co2     1 RES1   0.0000
  1364 O8       8.7747  21.5623   1.6319   O.co2     1 RES1   0.0000
  1365 O9       7.2855  17.9775   3.7275   O.co2     1 RES1   0.0000
  1366 O10      1.6319  17.9775   5.1899   O.co2     1 RES1   0.0000
  1367 O11      7.2855  26.6095   5.1899   O.co2     1 RES1   0.0000
  1368 O12      1.6319  26.6095   3.7275   O.co2     1 RES1   0.0000
  1369 O13     14.1073  28.3841  17.6921   O.co2     1 RES1   0.0000
  1370 O14     12.6449  34.0377  17.6921   O.co2     1 RES1   0.0000
  1371 O15     12.6449  28.3841   9.0601   O.co2     1 RES1   0.0000
  1372 O16     14.1073  34.0377   9.0601   O.co2     1 RES1   0.0000
  1373 O17     17.6921  31.9421  10.5493   O.co2     1 RES1   0.0000
  1374 O18     17.6921  30.4797  16.2029   O.co2     1 RES1   0.0000
  1375 O19      9.0601  30.4797  10.5493   O.co2     1 RES1   0.0000
  1376 O20      9.0601  31.9421  16.2029   O.co2     1 RES1   0.0000
  1377 O21     10.5493  35.5269  14.1073   O.co2     1 RES1   0.0000
  1378 O22     16.2029  35.5269  12.6449   O.co2     1 RES1   0.0000
  1379 O23     10.5493  26.8949  12.6449   O.co2     1 RES1   0.0000
  1380 O24     16.2029  26.8949  14.1073   O.co2     1 RES1   0.0000
  1381 O25      3.3957  28.9744   0.4387   O.co2     1 RES1   0.0000
  1382 O26      5.5217  33.4474   0.4387   O.co2     1 RES1   0.0000
  1383 O27      5.5217  28.9744   8.4787   O.co2     1 RES1   0.0000
  1384 O28      3.3957  33.4474   8.4787   O.co2     1 RES1   0.0000
  1385 O29      0.4387  21.2305  11.1396   O.co2     1 RES1   0.0000
  1386 O30      0.4387  23.3565  15.6126   O.co2     1 RES1   0.0000
  1387 O31      8.4787  23.3565  11.1396   O.co2     1 RES1   0.0000
  1388 O32      8.4787  21.2305  15.6126   O.co2     1 RES1   0.0000
  1389 O33     11.1396  18.2735   3.3957   O.co2     1 RES1   0.0000
  1390 O34     15.6126  18.2735   5.5217   O.co2     1 RES1   0.0000
  1391 O35     11.1396  26.3135   5.5217   O.co2     1 RES1   0.0000
  1392 O36     15.6126  26.3135   3.3957   O.co2     1 RES1   0.0000
  1393 O37     14.4391  24.5300  17.3961   O.co2     1 RES1   0.0000
  1394 O38     12.3131  20.0570  17.3961   O.co2     1 RES1   0.0000
  1395 O39     12.3131  24.5300   9.3561   O.co2     1 RES1   0.0000
  1396 O40     14.4391  20.0570   9.3561   O.co2     1 RES1   0.0000
  1397 O41     17.3961  32.2739   6.6952   O.co2     1 RES1   0.0000
  1398 O42     17.3961  30.1479   2.2222   O.co2     1 RES1   0.0000
  1399 O43      9.3561  30.1479   6.6952   O.co2     1 RES1   0.0000
  1400 O44      9.3561  32.2739   2.2222   O.co2     1 RES1   0.0000
  1401 O45      6.6952  35.2309  14.4391   O.co2     1 RES1   0.0000
  1402 O46      2.2222  35.2309  12.3131   O.co2     1 RES1   0.0000
  1403 O47      6.6952  27.1909  12.3131   O.co2     1 RES1   0.0000
  1404 O48      2.2222  27.1909  14.4391   O.co2     1 RES1   0.0000
  1405 O49      3.3815  26.8824   2.2525   O.co2     1 RES1   0.0000
  1406 O51      5.5359  26.8824   6.6649   O.co2     1 RES1   0.0000
  1407 O53      2.2525  21.2163   9.0476   O.co2     1 RES1   0.0000
  1408 O54      2.2525  23.3707  -0.1302   O.co2     1 RES1   0.0000
  1409 O55      6.6649  23.3707   9.0476   O.co2     1 RES1   0.0000
  1410 O56      6.6649  21.2163  -0.1302   O.co2     1 RES1   0.0000
  1411 O57      9.0476  20.0873   3.3815   O.co2     1 RES1   0.0000
  1412 O58     -0.1302  20.0873   5.5359   O.co2     1 RES1   0.0000
  1413 O59      9.0476  24.4997   5.5359   O.co2     1 RES1   0.0000
  1414 O60     -0.1302  24.4997   3.3815   O.co2     1 RES1   0.0000
  1415 O61     14.4533  26.6220  15.5823   O.co2     1 RES1   0.0000
  1416 O62     12.2989  35.7998  15.5823   O.co2     1 RES1   0.0000
  1417 O63     12.2989  26.6220  11.1699   O.co2     1 RES1   0.0000
  1418 O64     14.4533  35.7998  11.1699   O.co2     1 RES1   0.0000
  1419 O65     15.5823  32.2881   8.7872   O.co2     1 RES1   0.0000
  1420 O66     15.5823  30.1337  17.9650   O.co2     1 RES1   0.0000
  1421 O67     11.1699  30.1337   8.7872   O.co2     1 RES1   0.0000
  1422 O68     11.1699  32.2881  17.9650   O.co2     1 RES1   0.0000
  1423 O69      8.7872  33.4171  14.4533   O.co2     1 RES1   0.0000
  1424 O70     17.9650  33.4171  12.2989   O.co2     1 RES1   0.0000
  1425 O71      8.7872  29.0047  12.2989   O.co2     1 RES1   0.0000
  1426 O72     17.9650  29.0047  14.4533   O.co2     1 RES1   0.0000
  1427 O73      3.7239  27.1785  16.2190   O.co2     1 RES1   0.0000
  1428 O74      5.1935  35.2433  16.2190   O.co2     1 RES1   0.0000
  1429 O75      5.1935  27.1785  10.5332   O.co2     1 RES1   0.0000
  1430 O76      3.7239  35.2433  10.5332   O.co2     1 RES1   0.0000
  1431 O77     16.2190  21.5587   9.3437   O.co2     1 RES1   0.0000
  1432 O78     16.2190  23.0283  17.4085   O.co2     1 RES1   0.0000
  1433 O79     10.5332  23.0283   9.3437   O.co2     1 RES1   0.0000
  1434 O80     10.5332  21.5587  17.4085   O.co2     1 RES1   0.0000
  1435 O81      9.3437  34.0538   3.7239   O.co2     1 RES1   0.0000
  1436 O82     17.4085  34.0538   5.1935   O.co2     1 RES1   0.0000
  1437 O83      9.3437  28.3680   5.1935   O.co2     1 RES1   0.0000
  1438 O84     17.4085  28.3680   3.7239   O.co2     1 RES1   0.0000
  1439 O85     14.1109  26.3259   1.6158   O.co2     1 RES1   0.0000
  1440 O86     12.6413  18.2611   1.6158   O.co2     1 RES1   0.0000
  1441 O87     12.6413  26.3259   7.3016   O.co2     1 RES1   0.0000
  1442 O88     14.1109  18.2611   7.3016   O.co2     1 RES1   0.0000
  1443 O89      1.6158  31.9457   8.4911   O.co2     1 RES1   0.0000
  1444 O90      1.6158  30.4761   0.4263   O.co2     1 RES1   0.0000
  1445 O91      7.3016  30.4761   8.4911   O.co2     1 RES1   0.0000
  1446 O92      7.3016  31.9457   0.4263   O.co2     1 RES1   0.0000
  1447 O95      8.4911  25.1364  12.6413   O.co2     1 RES1   0.0000
  1448 O96      0.4263  25.1364  14.1109   O.co2     1 RES1   0.0000
  1449 C1       2.8607  30.1248   0.4280   C.2       1 RES1   0.0000
  1450 C2       6.0567  32.2970   0.4280   C.2       1 RES1   0.0000
  1451 C3       6.0567  30.1248   8.4894   C.2       1 RES1   0.0000
  1452 C4       2.8607  32.2970   8.4894   C.2       1 RES1   0.0000
  1453 C5       0.4280  20.6955  12.2900   C.2       1 RES1   0.0000
  1454 C6       0.4280  23.8915  14.4622   C.2       1 RES1   0.0000
  1455 C7       8.4894  23.8915  12.2900   C.2       1 RES1   0.0000
  1456 C8       8.4894  20.6955  14.4622   C.2       1 RES1   0.0000
  1457 C9      12.2900  18.2628   2.8607   C.2       1 RES1   0.0000
  1458 C10     14.4622  18.2628   6.0567   C.2       1 RES1   0.0000
  1459 C11     12.2900  26.3242   6.0567   C.2       1 RES1   0.0000
  1460 C12     14.4622  26.3242   2.8607   C.2       1 RES1   0.0000
  1461 C13     14.9741  23.3796  17.4068   C.2       1 RES1   0.0000
  1462 C14     11.7781  21.2074  17.4068   C.2       1 RES1   0.0000
  1463 C15     11.7781  23.3796   9.3454   C.2       1 RES1   0.0000
  1464 C16     14.9741  21.2074   9.3454   C.2       1 RES1   0.0000
  1465 C17     17.4068  32.8089   5.5448   C.2       1 RES1   0.0000
  1466 C18     17.4068  29.6129   3.3726   C.2       1 RES1   0.0000
  1467 C19      9.3454  29.6129   5.5448   C.2       1 RES1   0.0000
  1468 C20      9.3454  32.8089   3.3726   C.2       1 RES1   0.0000
  1469 C21      5.5448  35.2416  14.9741   C.2       1 RES1   0.0000
  1470 C22      3.3726  35.2416  11.7781   C.2       1 RES1   0.0000
  1471 C23      5.5448  27.1802  11.7781   C.2       1 RES1   0.0000
  1472 C24      3.3726  27.1802  14.9741   C.2       1 RES1   0.0000
  1473 C25      3.8202  31.3090   0.4334   C.2       1 RES1   0.0000
  1474 C26      5.0972  31.1128   0.4334   C.2       1 RES1   0.0000
  1475 C27      5.0972  31.3090   8.4840   C.2       1 RES1   0.0000
  1476 C28      3.8202  31.1128   8.4840   C.2       1 RES1   0.0000
  1477 C29      0.4334  21.6550  13.4742   C.2       1 RES1   0.0000
  1478 C30      0.4334  22.9320  13.2780   C.2       1 RES1   0.0000
  1479 C31      8.4840  22.9320  13.4742   C.2       1 RES1   0.0000
  1480 C32      8.4840  21.6550  13.2780   C.2       1 RES1   0.0000
  1481 C33     13.4742  18.2682   3.8202   C.2       1 RES1   0.0000
  1482 C34     13.2780  18.2682   5.0972   C.2       1 RES1   0.0000
  1483 C35     13.4742  26.3188   5.0972   C.2       1 RES1   0.0000
  1484 C36     13.2780  26.3188   3.8202   C.2       1 RES1   0.0000
  1485 C37     14.0146  22.1954  17.4014   C.2       1 RES1   0.0000
  1486 C38     12.7376  22.3916  17.4014   C.2       1 RES1   0.0000
  1487 C39     12.7376  22.1954   9.3508   C.2       1 RES1   0.0000
  1488 C40     14.0146  22.3916   9.3508   C.2       1 RES1   0.0000
  1489 C41     17.4014  31.8494   4.3606   C.2       1 RES1   0.0000
  1490 C42     17.4014  30.5724   4.5568   C.2       1 RES1   0.0000
  1491 C43      9.3508  30.5724   4.3606   C.2       1 RES1   0.0000
  1492 C44      9.3508  31.8494   4.5568   C.2       1 RES1   0.0000
  1493 C45      4.3606  35.2362  14.0146   C.2       1 RES1   0.0000
  1494 C46      4.5568  35.2362  12.7376   C.2       1 RES1   0.0000
  1495 C47      4.3606  27.1856  12.7376   C.2       1 RES1   0.0000
  1496 C48      4.5568  27.1856  14.0146   C.2       1 RES1   0.0000
  1497 H1       3.4867  32.1775   0.4352   H         1 RES1   0.0000
  1498 H2       5.4307  30.2443   0.4352   H         1 RES1   0.0000
  1499 H3       5.4307  32.1775   8.4822   H         1 RES1   0.0000
  1500 H4       3.4867  30.2443   8.4822   H         1 RES1   0.0000
  1501 H5       0.4352  21.3215  14.3427   H         1 RES1   0.0000
  1502 H6       0.4352  23.2655  12.4095   H         1 RES1   0.0000
  1503 H7       8.4822  23.2655  14.3427   H         1 RES1   0.0000
  1504 H8       8.4822  21.3215  12.4095   H         1 RES1   0.0000
  1505 H9      14.3427  18.2700   3.4867   H         1 RES1   0.0000
  1506 H10     12.4095  18.2700   5.4307   H         1 RES1   0.0000
  1507 H11     14.3427  26.3170   5.4307   H         1 RES1   0.0000
  1508 H12     12.4095  26.3170   3.4867   H         1 RES1   0.0000
  1509 H13     14.3481  21.3269  17.3996   H         1 RES1   0.0000
  1510 H14     12.4041  23.2601  17.3996   H         1 RES1   0.0000
  1511 H15     12.4041  21.3269   9.3526   H         1 RES1   0.0000
  1512 H16     14.3481  23.2601   9.3526   H         1 RES1   0.0000
  1513 H17     17.3996  32.1829   3.4921   H         1 RES1   0.0000
  1514 H18     17.3996  30.2389   5.4253   H         1 RES1   0.0000
  1515 H19      9.3526  30.2389   3.4921   H         1 RES1   0.0000
  1516 H20      9.3526  32.1829   5.4253   H         1 RES1   0.0000
  1517 H21      3.4921  35.2344  14.3481   H         1 RES1   0.0000
  1518 H22      5.4253  35.2344  12.4041   H         1 RES1   0.0000
  1519 H23      3.4921  27.1874  12.4041   H         1 RES1   0.0000
  1520 H24      5.4253  27.1874  14.3481   H         1 RES1   0.0000
  1521 C49      3.3993  23.8951   0.0000   C.2       1 RES1   0.0000
  1522 C50      5.5181  20.6919   0.0000   C.2       1 RES1   0.0000
  1523 C51      5.5181  23.8951   8.9174   C.2       1 RES1   0.0000
  1524 C52      3.3993  20.6919   8.9174   C.2       1 RES1   0.0000
  1525 C53      0.0000  21.2341   6.0603   C.2       1 RES1   0.0000
  1526 C54      0.0000  23.3529   2.8571   C.2       1 RES1   0.0000
  1527 C55      8.9174  23.3529   6.0603   C.2       1 RES1   0.0000
  1528 C56      8.9174  21.2341   2.8571   C.2       1 RES1   0.0000
  1529 C57      6.0603  17.8348   3.3993   C.2       1 RES1   0.0000
  1530 C58      2.8571  17.8348   5.5181   C.2       1 RES1   0.0000
  1531 C59      6.0603  26.7522   5.5181   C.2       1 RES1   0.0000
  1532 C60      2.8571  26.7522   3.3993   C.2       1 RES1   0.0000
  1533 C61     14.4355  29.6093  17.8348   C.2       1 RES1   0.0000
  1534 C62     12.3167  32.8125  17.8348   C.2       1 RES1   0.0000
  1535 C63     12.3167  29.6093   8.9174   C.2       1 RES1   0.0000
  1536 C64     14.4355  32.8125   8.9174   C.2       1 RES1   0.0000
  1537 C65     17.8348  32.2703  11.7745   C.2       1 RES1   0.0000
  1538 C66     17.8348  30.1515  14.9777   C.2       1 RES1   0.0000
  1539 C67      8.9174  30.1515  11.7745   C.2       1 RES1   0.0000
  1540 C68      8.9174  32.2703  14.9777   C.2       1 RES1   0.0000
  1541 C69     11.7745  35.6696  14.4355   C.2       1 RES1   0.0000
  1542 C70     14.9777  35.6696  12.3167   C.2       1 RES1   0.0000
  1543 C71     11.7745  26.7522  12.3167   C.2       1 RES1   0.0000
  1544 C72     14.9777  26.7522  14.4355   C.2       1 RES1   0.0000
  1545 C73      4.5782  22.9445   0.0018   C.2       1 RES1   0.0000
  1546 C74      4.3392  21.6425   0.0018   C.2       1 RES1   0.0000
  1547 C75      4.3392  22.9445   8.9156   C.2       1 RES1   0.0000
  1548 C76      4.5782  21.6425   8.9156   C.2       1 RES1   0.0000
  1549 C77      0.0018  22.4130   5.1097   C.2       1 RES1   0.0000
  1550 C78      0.0018  22.1740   3.8077   C.2       1 RES1   0.0000
  1551 C79      8.9156  22.1740   5.1097   C.2       1 RES1   0.0000
  1552 C80      8.9156  22.4130   3.8077   C.2       1 RES1   0.0000
  1553 C81      5.1097  17.8366   4.5782   C.2       1 RES1   0.0000
  1554 C82      3.8077  17.8366   4.3392   C.2       1 RES1   0.0000
  1555 C83      5.1097  26.7504   4.3392   C.2       1 RES1   0.0000
  1556 C84      3.8077  26.7504   4.5782   C.2       1 RES1   0.0000
  1557 C85     13.2566  30.5599  17.8330   C.2       1 RES1   0.0000
  1558 C86     13.4956  31.8619  17.8330   C.2       1 RES1   0.0000
  1559 C87     13.4956  30.5599   8.9192   C.2       1 RES1   0.0000
  1560 C88     13.2566  31.8619   8.9192   C.2       1 RES1   0.0000
  1561 C89     17.8330  31.0914  12.7251   C.2       1 RES1   0.0000
  1562 C90     17.8330  31.3304  14.0271   C.2       1 RES1   0.0000
  1563 C91      8.9192  31.3304  12.7251   C.2       1 RES1   0.0000
  1564 C92      8.9192  31.0914  14.0271   C.2       1 RES1   0.0000
  1565 C93     12.7251  35.6678  13.2566   C.2       1 RES1   0.0000
  1566 C94     14.0271  35.6678  13.4956   C.2       1 RES1   0.0000
  1567 C95     12.7251  26.7540  13.4956   C.2       1 RES1   0.0000
  1568 C96     14.0271  26.7540  13.2566   C.2       1 RES1   0.0000
  1569 H25      5.4503  23.2673   0.0018   H         1 RES1   0.0000
  1570 H26      3.4671  21.3197   0.0018   H         1 RES1   0.0000
  1571 H27      3.4671  23.2673   8.9156   H         1 RES1   0.0000
  1572 H28      5.4503  21.3197   8.9156   H         1 RES1   0.0000
  1573 H29      0.0018  23.2851   5.4325   H         1 RES1   0.0000
  1574 H30      0.0018  21.3019   3.4849   H         1 RES1   0.0000
  1575 H31      8.9156  21.3019   5.4325   H         1 RES1   0.0000
  1576 H32      8.9156  23.2851   3.4849   H         1 RES1   0.0000
  1577 H33      5.4325  17.8366   5.4503   H         1 RES1   0.0000
  1578 H34      3.4849  17.8366   3.4671   H         1 RES1   0.0000
  1579 H35      5.4325  26.7504   3.4671   H         1 RES1   0.0000
  1580 H36      3.4849  26.7504   5.4503   H         1 RES1   0.0000
  1581 H37     12.3845  30.2371  17.8330   H         1 RES1   0.0000
  1582 H38     14.3677  32.1847  17.8330   H         1 RES1   0.0000
  1583 H39     14.3677  30.2371   8.9192   H         1 RES1   0.0000
  1584 H40     12.3845  32.1847   8.9192   H         1 RES1   0.0000
  1585 H41     17.8330  30.2193  12.4023   H         1 RES1   0.0000
  1586 H42     17.8330  32.2025  14.3499   H         1 RES1   0.0000
  1587 H43      8.9192  32.2025  12.4023   H         1 RES1   0.0000
  1588 H44      8.9192  30.2193  14.3499   H         1 RES1   0.0000
  1589 H45     12.4023  35.6678  12.3845   H         1 RES1   0.0000
  1590 H46     14.3499  35.6678  14.3677   H         1 RES1   0.0000
  1591 H47     12.4023  26.7540  14.3677   H         1 RES1   0.0000
  1592 H48     14.3499  26.7540  12.3845   H         1 RES1   0.0000
  1593 O97      1.3644  28.3877  16.6809   O.3       1 RES1   0.0000
  1594 O98      7.5530  34.0341  16.6809   O.3       1 RES1   0.0000
  1595 O99      7.5530  28.3877  10.0713   O.3       1 RES1   0.0000
  1596 O100     1.3644  34.0341  10.0713   O.3       1 RES1   0.0000
  1597 O101    16.6809  19.1992  10.5529   O.3       1 RES1   0.0000
  1598 O102    16.6809  25.3878  16.1993   O.3       1 RES1   0.0000
  1599 O103    10.0713  25.3878  10.5529   O.3       1 RES1   0.0000
  1600 O105    10.5529  34.5157   1.3644   O.3       1 RES1   0.0000
  1601 O106    16.1993  34.5157   7.5530   O.3       1 RES1   0.0000
  1602 O107    10.5529  27.9061   7.5530   O.3       1 RES1   0.0000
  1603 O108    16.1993  27.9061   1.3644   O.3       1 RES1   0.0000
  1604 O109    16.4704  25.1167   1.1539   O.3       1 RES1   0.0000
  1605 O110    10.2818  19.4703   1.1539   O.3       1 RES1   0.0000
  1606 O111    10.2818  25.1167   7.7635   O.3       1 RES1   0.0000
  1607 O112    16.4704  19.4703   7.7635   O.3       1 RES1   0.0000
  1608 O113     1.1539  34.3052   7.2819   O.3       1 RES1   0.0000
  1609 O114     1.1539  28.1166   1.6355   O.3       1 RES1   0.0000
  1610 O115     7.7635  28.1166   7.2819   O.3       1 RES1   0.0000
  1611 O116     7.7635  34.3052   1.6355   O.3       1 RES1   0.0000
  1612 O119     7.2819  25.5983  10.2818   O.3       1 RES1   0.0000
  1613 O120     1.6355  25.5983  16.4704   O.3       1 RES1   0.0000
  1614 O121     1.0630  25.6892   1.0630   O.3       1 RES1   0.0000
  1615 O123     7.8544  25.6892   7.8544   O.3       1 RES1   0.0000
  1616 O125    16.7718  27.8152  16.7718   O.3       1 RES1   0.0000
  1617 O126     9.9804  34.6066  16.7718   O.3       1 RES1   0.0000
  1618 O127     9.9804  27.8152   9.9804   O.3       1 RES1   0.0000
  1619 O128    16.7718  34.6066   9.9804   O.3       1 RES1   0.0000
  1620 O129     1.0630  27.9757  16.9502   O.3       1 RES1   0.0000
  1621 O130     7.8544  34.4461  16.9502   O.3       1 RES1   0.0000
  1622 O131     7.8544  27.9757   9.8020   O.3       1 RES1   0.0000
  1623 O132     1.0630  34.4461   9.8020   O.3       1 RES1   0.0000
  1624 O133    16.9502  18.8978  10.1409   O.3       1 RES1   0.0000
  1625 O134    16.9502  25.6892  16.6113   O.3       1 RES1   0.0000
  1626 O135     9.8020  25.6892  10.1409   O.3       1 RES1   0.0000
  1627 O137    10.1409  34.7850   1.0630   O.3       1 RES1   0.0000
  1628 O138    16.6113  34.7850   7.8544   O.3       1 RES1   0.0000
  1629 O139    10.1409  27.6368   7.8544   O.3       1 RES1   0.0000
  1630 O140    16.6113  27.6368   1.0630   O.3       1 RES1   0.0000
  1631 O141    16.7718  25.5287   0.8846   O.3       1 RES1   0.0000
  1632 O142     9.9804  19.0583   0.8846   O.3       1 RES1   0.0000
  1633 O143     9.9804  25.5287   8.0328   O.3       1 RES1   0.0000
  1634 O144    16.7718  19.0583   8.0328   O.3       1 RES1   0.0000
  1635 O145     0.8846  34.6066   7.6939   O.3       1 RES1   0.0000
  1636 O146     0.8846  27.8152   1.2235   O.3       1 RES1   0.0000
  1637 O147     8.0328  27.8152   7.6939   O.3       1 RES1   0.0000
  1638 O148     8.0328  34.6066   1.2235   O.3       1 RES1   0.0000
  1639 O151     7.6939  25.8676   9.9804   O.3       1 RES1   0.0000
  1640 O152     1.2235  25.8676  16.7718   O.3       1 RES1   0.0000
  1641 O153     1.4000  25.3522   1.4000   O.3       1 RES1   0.0000
  1642 O155     7.5174  25.3522   7.5174   O.3       1 RES1   0.0000
  1643 O157    16.4348  28.1522  16.4348   O.3       1 RES1   0.0000
  1644 O158    10.3174  34.2696  16.4348   O.3       1 RES1   0.0000
  1645 O159    10.3174  28.1522  10.3174   O.3       1 RES1   0.0000
  1646 O160    16.4348  34.2696  10.3174   O.3       1 RES1   0.0000
  1647 Zr1      2.4585  26.9507  18.0467   Zr        1 RES1   0.0000
  1648 Zr1     20.2933  26.9507   0.2119   Zr        1 RES1   0.0000
  1649 Zr2      6.4589  35.4711  18.0467   Zr        1 RES1   0.0000
  1650 Zr4     20.2933  35.4711   8.7055   Zr        1 RES1   0.0000
  1651 Zr5      0.2119  38.1281   9.1159   Zr        1 RES1   0.0000
  1652 Zr5     18.0467  20.2933   9.1159   Zr        1 RES1   0.0000
  1653 Zr6      0.2119  24.2937  -0.1985   Zr        1 RES1   0.0000
  1654 Zr6     18.0467  24.2937  -0.1985   Zr        1 RES1   0.0000
  1655 Zr6     18.0467  24.2937  17.6363   Zr        1 RES1   0.0000
  1656 Zr8      8.7055  38.1281  -0.1985   Zr        1 RES1   0.0000
  1657 Zr8      8.7055  38.1281  17.6363   Zr        1 RES1   0.0000
  1658 Zr9      9.1159  35.8815   2.4585   Zr        1 RES1   0.0000
  1659 Zr10    -0.1985  35.8815   6.4589   Zr        1 RES1   0.0000
  1660 Zr10    17.6363  35.8815   6.4589   Zr        1 RES1   0.0000
  1661 Zr12    -0.1985  26.5403   2.4585   Zr        1 RES1   0.0000
  1662 Zr12    -0.1985  26.5403  20.2933   Zr        1 RES1   0.0000
  1663 Zr12    17.6363  26.5403  20.2933   Zr        1 RES1   0.0000
  1664 Zr13    -2.4585  26.5537  17.6229   Zr        1 RES1   0.0000
  1665 Zr13    15.3763  26.5537  -0.2119   Zr        1 RES1   0.0000
  1666 Zr14    11.3759  35.8681  -0.2119   Zr        1 RES1   0.0000
  1667 Zr14    11.3759  35.8681  17.6229   Zr        1 RES1   0.0000
  1668 Zr16    -2.4585  35.8681   9.1293   Zr        1 RES1   0.0000
  1669 Zr16    15.3763  35.8681   9.1293   Zr        1 RES1   0.0000
  1670 Zr17    -0.2119  33.2111   8.7189   Zr        1 RES1   0.0000
  1671 Zr18    -0.2119  29.2107   0.1985   Zr        1 RES1   0.0000
  1672 Zr18    -0.2119  29.2107  18.0333   Zr        1 RES1   0.0000
  1673 Zr18    17.6229  29.2107  18.0333   Zr        1 RES1   0.0000
  1674 Zr20     9.1293  33.2111  18.0333   Zr        1 RES1   0.0000
  1675 Zr21     8.7189  35.4577  -2.4585   Zr        1 RES1   0.0000
  1676 Zr22    18.0333  35.4577  11.3759   Zr        1 RES1   0.0000
  1677 Zr24     0.1985  26.9641  -2.4585   Zr        1 RES1   0.0000
  1678 Zr24    18.0333  26.9641  -2.4585   Zr        1 RES1   0.0000
  1679 Zr24    18.0333  26.9641  15.3763   Zr        1 RES1   0.0000
  1680 O2       5.1899  37.3015   0.1427   O.co2     1 RES1   0.0000
  1681 O4       3.7275  37.3015   8.7747   O.co2     1 RES1   0.0000
  1682 O6       0.1427  23.0247  19.4667   O.co2     1 RES1   0.0000
  1683 O8       8.7747  21.5623  19.4667   O.co2     1 RES1   0.0000
  1684 O10     19.4667  17.9775   5.1899   O.co2     1 RES1   0.0000
  1685 O12     19.4667  26.6095   3.7275   O.co2     1 RES1   0.0000
  1686 O18     17.6921  30.4797  -1.6319   O.2       1 RES1   0.0000
  1687 O20      9.0601  31.9421  -1.6319   O.2       1 RES1   0.0000
  1688 O22     -1.6319  35.5269  12.6449   O.2       1 RES1   0.0000
  1689 O24     -1.6319  26.8949  14.1073   O.2       1 RES1   0.0000
  1690 O50      5.5359  35.5394   2.2525   O.co2     1 RES1   0.0000
  1691 O52      3.3815  35.5394   6.6649   O.co2     1 RES1   0.0000
  1692 O54      2.2525  23.3707  17.7046   O.co2     1 RES1   0.0000
  1693 O56      6.6649  21.2163  17.7046   O.co2     1 RES1   0.0000
  1694 O58     17.7046  20.0873   5.5359   O.co2     1 RES1   0.0000
  1695 O60     17.7046  24.4997   3.3815   O.co2     1 RES1   0.0000
  1696 O66     15.5823  30.1337   0.1302   O.2       1 RES1   0.0000
  1697 O68     11.1699  32.2881   0.1302   O.2       1 RES1   0.0000
  1698 O70      0.1302  33.4171  12.2989   O.2       1 RES1   0.0000
  1699 O72      0.1302  29.0047  14.4533   O.2       1 RES1   0.0000
  1700 O73      3.7239  27.1785  -1.6158   O.2       1 RES1   0.0000
  1701 O74      5.1935  35.2433  -1.6158   O.2       1 RES1   0.0000
  1702 O77     -1.6158  21.5587   9.3437   O.2       1 RES1   0.0000
  1703 O78     -1.6158  23.0283  17.4085   O.2       1 RES1   0.0000
  1704 O85     14.1109  26.3259  19.4506   O.co2     1 RES1   0.0000
  1705 O86     12.6413  18.2611  19.4506   O.co2     1 RES1   0.0000
  1706 O89     19.4506  31.9457   8.4911   O.co2     1 RES1   0.0000
  1707 O90     19.4506  30.4761   0.4263   O.co2     1 RES1   0.0000
  1708 O93      8.4911  37.2854  14.1109   O.co2     1 RES1   0.0000
  1709 O94      0.4263  37.2854  12.6413   O.co2     1 RES1   0.0000
  1710 O97      1.3644  28.3877  -1.1539   O.3       1 RES1   0.0000
  1711 O97     19.1992  28.3877  -1.1539   O.3       1 RES1   0.0000
  1712 O98      7.5530  34.0341  -1.1539   O.3       1 RES1   0.0000
  1713 O100    19.1992  34.0341  10.0713   O.3       1 RES1   0.0000
  1714 O101    -1.1539  37.0340  10.5529   O.3       1 RES1   0.0000
  1715 O102    -1.1539  25.3878  16.1993   O.3       1 RES1   0.0000
  1716 O104    10.0713  37.0340  16.1993   O.3       1 RES1   0.0000
  1717 O108    16.1993  27.9061  19.1992   O.3       1 RES1   0.0000
  1718 O109    -1.3644  25.1167  18.9887   O.3       1 RES1   0.0000
  1719 O109    16.4704  25.1167  18.9887   O.3       1 RES1   0.0000
  1720 O110    10.2818  19.4703  18.9887   O.3       1 RES1   0.0000
  1721 O112    -1.3644  19.4703   7.7635   O.3       1 RES1   0.0000
  1722 O113    18.9887  34.3052   7.2819   O.3       1 RES1   0.0000
  1723 O114    18.9887  28.1166   1.6355   O.3       1 RES1   0.0000
  1724 O117     7.2819  36.8235  -1.3644   O.3       1 RES1   0.0000
  1725 O117     7.2819  36.8235  16.4704   O.3       1 RES1   0.0000
  1726 O118     1.6355  36.8235  10.2818   O.3       1 RES1   0.0000
  1727 O120     1.6355  25.5983  -1.3644   O.3       1 RES1   0.0000
  1728 O121     1.0630  25.6892  18.8978   O.3       1 RES1   0.0000
  1729 O121    18.8978  25.6892   1.0630   O.3       1 RES1   0.0000
  1730 O122     7.8544  36.7326   1.0630   O.3       1 RES1   0.0000
  1731 O124     1.0630  36.7326   7.8544   O.3       1 RES1   0.0000
  1732 O124    18.8978  18.8978   7.8544   O.3       1 RES1   0.0000
  1733 O125    -1.0630  27.8152  16.7718   O.3       1 RES1   0.0000
  1734 O125    16.7718  27.8152  -1.0630   O.3       1 RES1   0.0000
  1735 O126     9.9804  34.6066  -1.0630   O.3       1 RES1   0.0000
  1736 O128    -1.0630  34.6066   9.9804   O.3       1 RES1   0.0000
  1737 O129     1.0630  27.9757  -0.8846   O.3       1 RES1   0.0000
  1738 O129    18.8978  27.9757  -0.8846   O.3       1 RES1   0.0000
  1739 O130     7.8544  34.4461  -0.8846   O.3       1 RES1   0.0000
  1740 O132    18.8978  34.4461   9.8020   O.3       1 RES1   0.0000
  1741 O133    -0.8846  36.7326  10.1409   O.3       1 RES1   0.0000
  1742 O134    -0.8846  25.6892  16.6113   O.3       1 RES1   0.0000
  1743 O136     9.8020  36.7326  16.6113   O.3       1 RES1   0.0000
  1744 O140    16.6113  27.6368  18.8978   O.3       1 RES1   0.0000
  1745 O141    -1.0630  25.5287  18.7194   O.3       1 RES1   0.0000
  1746 O141    16.7718  25.5287  18.7194   O.3       1 RES1   0.0000
  1747 O142     9.9804  19.0583  18.7194   O.3       1 RES1   0.0000
  1748 O144    -1.0630  19.0583   8.0328   O.3       1 RES1   0.0000
  1749 O145    18.7194  34.6066   7.6939   O.3       1 RES1   0.0000
  1750 O146    18.7194  27.8152   1.2235   O.3       1 RES1   0.0000
  1751 O149     7.6939  36.5542  -1.0630   O.3       1 RES1   0.0000
  1752 O149     7.6939  36.5542  16.7718   O.3       1 RES1   0.0000
  1753 O150     1.2235  36.5542   9.9804   O.3       1 RES1   0.0000
  1754 O152     1.2235  25.8676  -1.0630   O.3       1 RES1   0.0000
  1755 O153     1.4000  25.3522  19.2348   O.3       1 RES1   0.0000
  1756 O153    19.2348  25.3522   1.4000   O.3       1 RES1   0.0000
  1757 O154     7.5174  37.0696   1.4000   O.3       1 RES1   0.0000
  1758 O156     1.4000  37.0696   7.5174   O.3       1 RES1   0.0000
  1759 O156    19.2348  19.2348   7.5174   O.3       1 RES1   0.0000
  1760 O157    -1.4000  28.1522  16.4348   O.3       1 RES1   0.0000
  1761 O157    16.4348  28.1522  -1.4000   O.3       1 RES1   0.0000
  1762 O158    10.3174  34.2696  -1.4000   O.3       1 RES1   0.0000
  1763 O160    -1.4000  34.2696  10.3174   O.3       1 RES1   0.0000
  1764 Zr3      6.4589  26.9507  26.5403   Zr        1 RES1   0.0000
  1765 Zr4      2.4585  35.4711  26.5403   Zr        1 RES1   0.0000
  1766 Zr6      0.2119  24.2937  35.4711   Zr        1 RES1   0.0000
  1767 Zr7      8.7055  24.2937  26.9507   Zr        1 RES1   0.0000
  1768 Zr11     9.1159  26.5403  24.2937   Zr        1 RES1   0.0000
  1769 Zr13    15.3763  26.5537  35.4577   Zr        1 RES1   0.0000
  1770 Zr15    11.3759  26.5537  26.9641   Zr        1 RES1   0.0000
  1771 Zr17    17.6229  33.2111  26.5537   Zr        1 RES1   0.0000
  1772 Zr19     9.1293  29.2107  26.5537   Zr        1 RES1   0.0000
  1773 Zr21     8.7189  35.4577  33.2111   Zr        1 RES1   0.0000
  1774 Zr22     0.1985  35.4577  29.2107   Zr        1 RES1   0.0000
  1775 Zr23     8.7189  26.9641  29.2107   Zr        1 RES1   0.0000
  1776 Zr24     0.1985  26.9641  33.2111   Zr        1 RES1   0.0000
  1777 O1       3.7275  25.1203  17.9775   O.co2     1 RES1   0.0000
  1778 O3       5.1899  25.1203  26.6095   O.co2     1 RES1   0.0000
  1779 O5       0.1427  21.5623  25.1203   O.co2     1 RES1   0.0000
  1780 O7       8.7747  23.0247  25.1203   O.co2     1 RES1   0.0000
  1781 O9       7.2855  17.9775  21.5623   O.co2     1 RES1   0.0000
  1782 O10      1.6319  17.9775  23.0247   O.co2     1 RES1   0.0000
  1783 O11      7.2855  26.6095  23.0247   O.co2     1 RES1   0.0000
  1784 O12      1.6319  26.6095  21.5623   O.co2     1 RES1   0.0000
  1785 O13     14.1073  28.3841  35.5269   O.co2     1 RES1   0.0000
  1786 O14     12.6449  34.0377  35.5269   O.co2     1 RES1   0.0000
  1787 O15     12.6449  28.3841  26.8949   O.co2     1 RES1   0.0000
  1788 O16     14.1073  34.0377  26.8949   O.co2     1 RES1   0.0000
  1789 O17     17.6921  31.9421  28.3841   O.co2     1 RES1   0.0000
  1790 O18     17.6921  30.4797  34.0377   O.co2     1 RES1   0.0000
  1791 O19      9.0601  30.4797  28.3841   O.co2     1 RES1   0.0000
  1792 O20      9.0601  31.9421  34.0377   O.co2     1 RES1   0.0000
  1793 O21     10.5493  35.5269  31.9421   O.co2     1 RES1   0.0000
  1794 O22     16.2029  35.5269  30.4797   O.co2     1 RES1   0.0000
  1795 O23     10.5493  26.8949  30.4797   O.co2     1 RES1   0.0000
  1796 O24     16.2029  26.8949  31.9421   O.co2     1 RES1   0.0000
  1797 O25      3.3957  28.9744  18.2735   O.co2     1 RES1   0.0000
  1798 O26      5.5217  33.4474  18.2735   O.co2     1 RES1   0.0000
  1799 O27      5.5217  28.9744  26.3135   O.co2     1 RES1   0.0000
  1800 O28      3.3957  33.4474  26.3135   O.co2     1 RES1   0.0000
  1801 O29      0.4387  21.2305  28.9744   O.co2     1 RES1   0.0000
  1802 O30      0.4387  23.3565  33.4474   O.co2     1 RES1   0.0000
  1803 O31      8.4787  23.3565  28.9744   O.co2     1 RES1   0.0000
  1804 O32      8.4787  21.2305  33.4474   O.co2     1 RES1   0.0000
  1805 O33     11.1396  18.2735  21.2305   O.co2     1 RES1   0.0000
  1806 O34     15.6126  18.2735  23.3565   O.co2     1 RES1   0.0000
  1807 O35     11.1396  26.3135  23.3565   O.co2     1 RES1   0.0000
  1808 O36     15.6126  26.3135  21.2305   O.co2     1 RES1   0.0000
  1809 O37     14.4391  24.5300  35.2309   O.co2     1 RES1   0.0000
  1810 O38     12.3131  20.0570  35.2309   O.co2     1 RES1   0.0000
  1811 O39     12.3131  24.5300  27.1909   O.co2     1 RES1   0.0000
  1812 O40     14.4391  20.0570  27.1909   O.co2     1 RES1   0.0000
  1813 O41     17.3961  32.2739  24.5300   O.co2     1 RES1   0.0000
  1814 O42     17.3961  30.1479  20.0570   O.co2     1 RES1   0.0000
  1815 O43      9.3561  30.1479  24.5300   O.co2     1 RES1   0.0000
  1816 O44      9.3561  32.2739  20.0570   O.co2     1 RES1   0.0000
  1817 O45      6.6952  35.2309  32.2739   O.co2     1 RES1   0.0000
  1818 O46      2.2222  35.2309  30.1479   O.co2     1 RES1   0.0000
  1819 O47      6.6952  27.1909  30.1479   O.co2     1 RES1   0.0000
  1820 O48      2.2222  27.1909  32.2739   O.co2     1 RES1   0.0000
  1821 O49      3.3815  26.8824  20.0873   O.co2     1 RES1   0.0000
  1822 O51      5.5359  26.8824  24.4997   O.co2     1 RES1   0.0000
  1823 O53      2.2525  21.2163  26.8824   O.co2     1 RES1   0.0000
  1824 O55      6.6649  23.3707  26.8824   O.co2     1 RES1   0.0000
  1825 O57      9.0476  20.0873  21.2163   O.co2     1 RES1   0.0000
  1826 O58     -0.1302  20.0873  23.3707   O.co2     1 RES1   0.0000
  1827 O59      9.0476  24.4997  23.3707   O.co2     1 RES1   0.0000
  1828 O60     -0.1302  24.4997  21.2163   O.co2     1 RES1   0.0000
  1829 O61     14.4533  26.6220  33.4171   O.co2     1 RES1   0.0000
  1830 O62     12.2989  35.7998  33.4171   O.co2     1 RES1   0.0000
  1831 O63     12.2989  26.6220  29.0047   O.co2     1 RES1   0.0000
  1832 O64     14.4533  35.7998  29.0047   O.co2     1 RES1   0.0000
  1833 O65     15.5823  32.2881  26.6220   O.co2     1 RES1   0.0000
  1834 O66     15.5823  30.1337  35.7998   O.co2     1 RES1   0.0000
  1835 O67     11.1699  30.1337  26.6220   O.co2     1 RES1   0.0000
  1836 O68     11.1699  32.2881  35.7998   O.co2     1 RES1   0.0000
  1837 O69      8.7872  33.4171  32.2881   O.co2     1 RES1   0.0000
  1838 O70     17.9650  33.4171  30.1337   O.co2     1 RES1   0.0000
  1839 O71      8.7872  29.0047  30.1337   O.co2     1 RES1   0.0000
  1840 O72     17.9650  29.0047  32.2881   O.co2     1 RES1   0.0000
  1841 O73      3.7239  27.1785  34.0538   O.co2     1 RES1   0.0000
  1842 O74      5.1935  35.2433  34.0538   O.co2     1 RES1   0.0000
  1843 O75      5.1935  27.1785  28.3680   O.co2     1 RES1   0.0000
  1844 O76      3.7239  35.2433  28.3680   O.co2     1 RES1   0.0000
  1845 O77     16.2190  21.5587  27.1785   O.co2     1 RES1   0.0000
  1846 O78     16.2190  23.0283  35.2433   O.co2     1 RES1   0.0000
  1847 O79     10.5332  23.0283  27.1785   O.co2     1 RES1   0.0000
  1848 O80     10.5332  21.5587  35.2433   O.co2     1 RES1   0.0000
  1849 O81      9.3437  34.0538  21.5587   O.co2     1 RES1   0.0000
  1850 O82     17.4085  34.0538  23.0283   O.co2     1 RES1   0.0000
  1851 O83      9.3437  28.3680  23.0283   O.co2     1 RES1   0.0000
  1852 O84     17.4085  28.3680  21.5587   O.co2     1 RES1   0.0000
  1853 O87     12.6413  26.3259  25.1364   O.co2     1 RES1   0.0000
  1854 O88     14.1109  18.2611  25.1364   O.co2     1 RES1   0.0000
  1855 O89      1.6158  31.9457  26.3259   O.co2     1 RES1   0.0000
  1856 O90      1.6158  30.4761  18.2611   O.co2     1 RES1   0.0000
  1857 O91      7.3016  30.4761  26.3259   O.co2     1 RES1   0.0000
  1858 O92      7.3016  31.9457  18.2611   O.co2     1 RES1   0.0000
  1859 O95      8.4911  25.1364  30.4761   O.co2     1 RES1   0.0000
  1860 O96      0.4263  25.1364  31.9457   O.co2     1 RES1   0.0000
  1861 C1       2.8607  30.1248  18.2628   C.2       1 RES1   0.0000
  1862 C2       6.0567  32.2970  18.2628   C.2       1 RES1   0.0000
  1863 C3       6.0567  30.1248  26.3242   C.2       1 RES1   0.0000
  1864 C4       2.8607  32.2970  26.3242   C.2       1 RES1   0.0000
  1865 C5       0.4280  20.6955  30.1248   C.2       1 RES1   0.0000
  1866 C6       0.4280  23.8915  32.2970   C.2       1 RES1   0.0000
  1867 C7       8.4894  23.8915  30.1248   C.2       1 RES1   0.0000
  1868 C8       8.4894  20.6955  32.2970   C.2       1 RES1   0.0000
  1869 C9      12.2900  18.2628  20.6955   C.2       1 RES1   0.0000
  1870 C10     14.4622  18.2628  23.8915   C.2       1 RES1   0.0000
  1871 C11     12.2900  26.3242  23.8915   C.2       1 RES1   0.0000
  1872 C12     14.4622  26.3242  20.6955   C.2       1 RES1   0.0000
  1873 C13     14.9741  23.3796  35.2416   C.2       1 RES1   0.0000
  1874 C14     11.7781  21.2074  35.2416   C.2       1 RES1   0.0000
  1875 C15     11.7781  23.3796  27.1802   C.2       1 RES1   0.0000
  1876 C16     14.9741  21.2074  27.1802   C.2       1 RES1   0.0000
  1877 C17     17.4068  32.8089  23.3796   C.2       1 RES1   0.0000
  1878 C18     17.4068  29.6129  21.2074   C.2       1 RES1   0.0000
  1879 C19      9.3454  29.6129  23.3796   C.2       1 RES1   0.0000
  1880 C20      9.3454  32.8089  21.2074   C.2       1 RES1   0.0000
  1881 C21      5.5448  35.2416  32.8089   C.2       1 RES1   0.0000
  1882 C22      3.3726  35.2416  29.6129   C.2       1 RES1   0.0000
  1883 C23      5.5448  27.1802  29.6129   C.2       1 RES1   0.0000
  1884 C24      3.3726  27.1802  32.8089   C.2       1 RES1   0.0000
  1885 C25      3.8202  31.3090  18.2682   C.2       1 RES1   0.0000
  1886 C26      5.0972  31.1128  18.2682   C.2       1 RES1   0.0000
  1887 C27      5.0972  31.3090  26.3188   C.2       1 RES1   0.0000
  1888 C28      3.8202  31.1128  26.3188   C.2       1 RES1   0.0000
  1889 C29      0.4334  21.6550  31.3090   C.2       1 RES1   0.0000
  1890 C30      0.4334  22.9320  31.1128   C.2       1 RES1   0.0000
  1891 C31      8.4840  22.9320  31.3090   C.2       1 RES1   0.0000
  1892 C32      8.4840  21.6550  31.1128   C.2       1 RES1   0.0000
  1893 C33     13.4742  18.2682  21.6550   C.2       1 RES1   0.0000
  1894 C34     13.2780  18.2682  22.9320   C.2       1 RES1   0.0000
  1895 C35     13.4742  26.3188  22.9320   C.2       1 RES1   0.0000
  1896 C36     13.2780  26.3188  21.6550   C.2       1 RES1   0.0000
  1897 C37     14.0146  22.1954  35.2362   C.2       1 RES1   0.0000
  1898 C38     12.7376  22.3916  35.2362   C.2       1 RES1   0.0000
  1899 C39     12.7376  22.1954  27.1856   C.2       1 RES1   0.0000
  1900 C40     14.0146  22.3916  27.1856   C.2       1 RES1   0.0000
  1901 C41     17.4014  31.8494  22.1954   C.2       1 RES1   0.0000
  1902 C42     17.4014  30.5724  22.3916   C.2       1 RES1   0.0000
  1903 C43      9.3508  30.5724  22.1954   C.2       1 RES1   0.0000
  1904 C44      9.3508  31.8494  22.3916   C.2       1 RES1   0.0000
  1905 C45      4.3606  35.2362  31.8494   C.2       1 RES1   0.0000
  1906 C46      4.5568  35.2362  30.5724   C.2       1 RES1   0.0000
  1907 C47      4.3606  27.1856  30.5724   C.2       1 RES1   0.0000
  1908 C48      4.5568  27.1856  31.8494   C.2       1 RES1   0.0000
  1909 H1       3.4867  32.1775  18.2700   H         1 RES1   0.0000
  1910 H2       5.4307  30.2443  18.2700   H         1 RES1   0.0000
  1911 H3       5.4307  32.1775  26.3170   H         1 RES1   0.0000
  1912 H4       3.4867  30.2443  26.3170   H         1 RES1   0.0000
  1913 H5       0.4352  21.3215  32.1775   H         1 RES1   0.0000
  1914 H6       0.4352  23.2655  30.2443   H         1 RES1   0.0000
  1915 H7       8.4822  23.2655  32.1775   H         1 RES1   0.0000
  1916 H8       8.4822  21.3215  30.2443   H         1 RES1   0.0000
  1917 H9      14.3427  18.2700  21.3215   H         1 RES1   0.0000
  1918 H10     12.4095  18.2700  23.2655   H         1 RES1   0.0000
  1919 H11     14.3427  26.3170  23.2655   H         1 RES1   0.0000
  1920 H12     12.4095  26.3170  21.3215   H         1 RES1   0.0000
  1921 H13     14.3481  21.3269  35.2344   H         1 RES1   0.0000
  1922 H14     12.4041  23.2601  35.2344   H         1 RES1   0.0000
  1923 H15     12.4041  21.3269  27.1874   H         1 RES1   0.0000
  1924 H16     14.3481  23.2601  27.1874   H         1 RES1   0.0000
  1925 H17     17.3996  32.1829  21.3269   H         1 RES1   0.0000
  1926 H18     17.3996  30.2389  23.2601   H         1 RES1   0.0000
  1927 H19      9.3526  30.2389  21.3269   H         1 RES1   0.0000
  1928 H20      9.3526  32.1829  23.2601   H         1 RES1   0.0000
  1929 H21      3.4921  35.2344  32.1829   H         1 RES1   0.0000
  1930 H22      5.4253  35.2344  30.2389   H         1 RES1   0.0000
  1931 H23      3.4921  27.1874  30.2389   H         1 RES1   0.0000
  1932 H24      5.4253  27.1874  32.1829   H         1 RES1   0.0000
  1933 C49      3.3993  23.8951  17.8348   C.2       1 RES1   0.0000
  1934 C50      5.5181  20.6919  17.8348   C.2       1 RES1   0.0000
  1935 C51      5.5181  23.8951  26.7522   C.2       1 RES1   0.0000
  1936 C52      3.3993  20.6919  26.7522   C.2       1 RES1   0.0000
  1937 C53      0.0000  21.2341  23.8951   C.2       1 RES1   0.0000
  1938 C54      0.0000  23.3529  20.6919   C.2       1 RES1   0.0000
  1939 C55      8.9174  23.3529  23.8951   C.2       1 RES1   0.0000
  1940 C56      8.9174  21.2341  20.6919   C.2       1 RES1   0.0000
  1941 C57      6.0603  17.8348  21.2341   C.2       1 RES1   0.0000
  1942 C58      2.8571  17.8348  23.3529   C.2       1 RES1   0.0000
  1943 C59      6.0603  26.7522  23.3529   C.2       1 RES1   0.0000
  1944 C60      2.8571  26.7522  21.2341   C.2       1 RES1   0.0000
  1945 C61     14.4355  29.6093  35.6696   C.2       1 RES1   0.0000
  1946 C62     12.3167  32.8125  35.6696   C.2       1 RES1   0.0000
  1947 C63     12.3167  29.6093  26.7522   C.2       1 RES1   0.0000
  1948 C64     14.4355  32.8125  26.7522   C.2       1 RES1   0.0000
  1949 C65     17.8348  32.2703  29.6093   C.2       1 RES1   0.0000
  1950 C66     17.8348  30.1515  32.8125   C.2       1 RES1   0.0000
  1951 C67      8.9174  30.1515  29.6093   C.2       1 RES1   0.0000
  1952 C68      8.9174  32.2703  32.8125   C.2       1 RES1   0.0000
  1953 C69     11.7745  35.6696  32.2703   C.2       1 RES1   0.0000
  1954 C70     14.9777  35.6696  30.1515   C.2       1 RES1   0.0000
  1955 C71     11.7745  26.7522  30.1515   C.2       1 RES1   0.0000
  1956 C72     14.9777  26.7522  32.2703   C.2       1 RES1   0.0000
  1957 C73      4.5782  22.9445  17.8366   C.2       1 RES1   0.0000
  1958 C74      4.3392  21.6425  17.8366   C.2       1 RES1   0.0000
  1959 C75      4.3392  22.9445  26.7504   C.2       1 RES1   0.0000
  1960 C76      4.5782  21.6425  26.7504   C.2       1 RES1   0.0000
  1961 C77      0.0018  22.4130  22.9445   C.2       1 RES1   0.0000
  1962 C78      0.0018  22.1740  21.6425   C.2       1 RES1   0.0000
  1963 C79      8.9156  22.1740  22.9445   C.2       1 RES1   0.0000
  1964 C80      8.9156  22.4130  21.6425   C.2       1 RES1   0.0000
  1965 C81      5.1097  17.8366  22.4130   C.2       1 RES1   0.0000
  1966 C82      3.8077  17.8366  22.1740   C.2       1 RES1   0.0000
  1967 C83      5.1097  26.7504  22.1740   C.2       1 RES1   0.0000
  1968 C84      3.8077  26.7504  22.4130   C.2       1 RES1   0.0000
  1969 C85     13.2566  30.5599  35.6678   C.2       1 RES1   0.0000
  1970 C86     13.4956  31.8619  35.6678   C.2       1 RES1   0.0000
  1971 C87     13.4956  30.5599  26.7540   C.2       1 RES1   0.0000
  1972 C88     13.2566  31.8619  26.7540   C.2       1 RES1   0.0000
  1973 C89     17.8330  31.0914  30.5599   C.2       1 RES1   0.0000
  1974 C90     17.8330  31.3304  31.8619   C.2       1 RES1   0.0000
  1975 C91      8.9192  31.3304  30.5599   C.2       1 RES1   0.0000
  1976 C92      8.9192  31.0914  31.8619   C.2       1 RES1   0.0000
  1977 C93     12.7251  35.6678  31.0914   C.2       1 RES1   0.0000
  1978 C94     14.0271  35.6678  31.3304   C.2       1 RES1   0.0000
  1979 C95     12.7251  26.7540  31.3304   C.2       1 RES1   0.0000
  1980 C96     14.0271  26.7540  31.0914   C.2       1 RES1   0.0000
  1981 H25      5.4503  23.2673  17.8366   H         1 RES1   0.0000
  1982 H26      3.4671  21.3197  17.8366   H         1 RES1   0.0000
  1983 H27      3.4671  23.2673  26.7504   H         1 RES1   0.0000
  1984 H28      5.4503  21.3197  26.7504   H         1 RES1   0.0000
  1985 H29      0.0018  23.2851  23.2673   H         1 RES1   0.0000
  1986 H30      0.0018  21.3019  21.3197   H         1 RES1   0.0000
  1987 H31      8.9156  21.3019  23.2673   H         1 RES1   0.0000
  1988 H32      8.9156  23.2851  21.3197   H         1 RES1   0.0000
  1989 H33      5.4325  17.8366  23.2851   H         1 RES1   0.0000
  1990 H34      3.4849  17.8366  21.3019   H         1 RES1   0.0000
  1991 H35      5.4325  26.7504  21.3019   H         1 RES1   0.0000
  1992 H36      3.4849  26.7504  23.2851   H         1 RES1   0.0000
  1993 H37     12.3845  30.2371  35.6678   H         1 RES1   0.0000
  1994 H38     14.3677  32.1847  35.6678   H         1 RES1   0.0000
  1995 H39     14.3677  30.2371  26.7540   H         1 RES1   0.0000
  1996 H40     12.3845  32.1847  26.7540   H         1 RES1   0.0000
  1997 H41     17.8330  30.2193  30.2371   H         1 RES1   0.0000
  1998 H42     17.8330  32.2025  32.1847   H         1 RES1   0.0000
  1999 H43      8.9192  32.2025  30.2371   H         1 RES1   0.0000
  2000 H44      8.9192  30.2193  32.1847   H         1 RES1   0.0000
  2001 H45     12.4023  35.6678  30.2193   H         1 RES1   0.0000
  2002 H46     14.3499  35.6678  32.2025   H         1 RES1   0.0000
  2003 H47     12.4023  26.7540  32.2025   H         1 RES1   0.0000
  2004 H48     14.3499  26.7540  30.2193   H         1 RES1   0.0000
  2005 O97      1.3644  28.3877  34.5157   O.3       1 RES1   0.0000
  2006 O98      7.5530  34.0341  34.5157   O.3       1 RES1   0.0000
  2007 O99      7.5530  28.3877  27.9061   O.3       1 RES1   0.0000
  2008 O100     1.3644  34.0341  27.9061   O.3       1 RES1   0.0000
  2009 O101    16.6809  19.1992  28.3877   O.3       1 RES1   0.0000
  2010 O102    16.6809  25.3878  34.0341   O.3       1 RES1   0.0000
  2011 O103    10.0713  25.3878  28.3877   O.3       1 RES1   0.0000
  2012 O105    10.5529  34.5157  19.1992   O.3       1 RES1   0.0000
  2013 O106    16.1993  34.5157  25.3878   O.3       1 RES1   0.0000
  2014 O107    10.5529  27.9061  25.3878   O.3       1 RES1   0.0000
  2015 O111    10.2818  25.1167  25.5983   O.3       1 RES1   0.0000
  2016 O112    16.4704  19.4703  25.5983   O.3       1 RES1   0.0000
  2017 O113     1.1539  34.3052  25.1167   O.3       1 RES1   0.0000
  2018 O114     1.1539  28.1166  19.4703   O.3       1 RES1   0.0000
  2019 O115     7.7635  28.1166  25.1167   O.3       1 RES1   0.0000
  2020 O116     7.7635  34.3052  19.4703   O.3       1 RES1   0.0000
  2021 O119     7.2819  25.5983  28.1166   O.3       1 RES1   0.0000
  2022 O120     1.6355  25.5983  34.3052   O.3       1 RES1   0.0000
  2023 O123     7.8544  25.6892  25.6892   O.3       1 RES1   0.0000
  2024 O125    16.7718  27.8152  34.6066   O.3       1 RES1   0.0000
  2025 O126     9.9804  34.6066  34.6066   O.3       1 RES1   0.0000
  2026 O127     9.9804  27.8152  27.8152   O.3       1 RES1   0.0000
  2027 O128    16.7718  34.6066  27.8152   O.3       1 RES1   0.0000
  2028 O129     1.0630  27.9757  34.7850   O.3       1 RES1   0.0000
  2029 O130     7.8544  34.4461  34.7850   O.3       1 RES1   0.0000
  2030 O131     7.8544  27.9757  27.6368   O.3       1 RES1   0.0000
  2031 O132     1.0630  34.4461  27.6368   O.3       1 RES1   0.0000
  2032 O133    16.9502  18.8978  27.9757   O.3       1 RES1   0.0000
  2033 O134    16.9502  25.6892  34.4461   O.3       1 RES1   0.0000
  2034 O135     9.8020  25.6892  27.9757   O.3       1 RES1   0.0000
  2035 O137    10.1409  34.7850  18.8978   O.3       1 RES1   0.0000
  2036 O138    16.6113  34.7850  25.6892   O.3       1 RES1   0.0000
  2037 O139    10.1409  27.6368  25.6892   O.3       1 RES1   0.0000
  2038 O143     9.9804  25.5287  25.8676   O.3       1 RES1   0.0000
  2039 O144    16.7718  19.0583  25.8676   O.3       1 RES1   0.0000
  2040 O145     0.8846  34.6066  25.5287   O.3       1 RES1   0.0000
  2041 O146     0.8846  27.8152  19.0583   O.3       1 RES1   0.0000
  2042 O147     8.0328  27.8152  25.5287   O.3       1 RES1   0.0000
  2043 O148     8.0328  34.6066  19.0583   O.3       1 RES1   0.0000
  2044 O151     7.6939  25.8676  27.8152   O.3       1 RES1   0.0000
  2045 O152     1.2235  25.8676  34.6066   O.3       1 RES1   0.0000
  2046 O155     7.5174  25.3522  25.3522   O.3       1 RES1   0.0000
  2047 O157    16.4348  28.1522  34.2696   O.3       1 RES1   0.0000
  2048 O158    10.3174  34.2696  34.2696   O.3       1 RES1   0.0000
  2049 O159    10.3174  28.1522  28.1522   O.3       1 RES1   0.0000
  2050 O160    16.4348  34.2696  28.1522   O.3       1 RES1   0.0000
  2051 Zr1      2.4585  26.9507  35.8815   Zr        1 RES1   0.0000
  2052 Zr1     20.2933  26.9507  18.0467   Zr        1 RES1   0.0000
  2053 Zr2      6.4589  35.4711  35.8815   Zr        1 RES1   0.0000
  2054 Zr4     20.2933  35.4711  26.5403   Zr        1 RES1   0.0000
  2055 Zr5      0.2119  38.1281  26.9507   Zr        1 RES1   0.0000
  2056 Zr5     18.0467  20.2933  26.9507   Zr        1 RES1   0.0000
  2057 Zr6     18.0467  24.2937  35.4711   Zr        1 RES1   0.0000
  2058 Zr8      8.7055  38.1281  35.4711   Zr        1 RES1   0.0000
  2059 Zr9      9.1159  35.8815  20.2933   Zr        1 RES1   0.0000
  2060 Zr10    -0.1985  35.8815  24.2937   Zr        1 RES1   0.0000
  2061 Zr10    17.6363  35.8815  24.2937   Zr        1 RES1   0.0000
  2062 Zr12    -0.1985  26.5403  38.1281   Zr        1 RES1   0.0000
  2063 Zr12    17.6363  26.5403  38.1281   Zr        1 RES1   0.0000
  2064 Zr13    -2.4585  26.5537  35.4577   Zr        1 RES1   0.0000
  2065 Zr14    11.3759  35.8681  35.4577   Zr        1 RES1   0.0000
  2066 Zr16    -2.4585  35.8681  26.9641   Zr        1 RES1   0.0000
  2067 Zr16    15.3763  35.8681  26.9641   Zr        1 RES1   0.0000
  2068 Zr17    -0.2119  33.2111  26.5537   Zr        1 RES1   0.0000
  2069 Zr18    -0.2119  29.2107  35.8681   Zr        1 RES1   0.0000
  2070 Zr18    17.6229  29.2107  35.8681   Zr        1 RES1   0.0000
  2071 Zr20     9.1293  33.2111  35.8681   Zr        1 RES1   0.0000
  2072 Zr22    18.0333  35.4577  29.2107   Zr        1 RES1   0.0000
  2073 Zr24    18.0333  26.9641  33.2111   Zr        1 RES1   0.0000
  2074 O2       5.1899  37.3015  17.9775   O.co2     1 RES1   0.0000
  2075 O4       3.7275  37.3015  26.6095   O.co2     1 RES1   0.0000
  2076 O6       0.1427  23.0247  37.3015   O.co2     1 RES1   0.0000
  2077 O8       8.7747  21.5623  37.3015   O.co2     1 RES1   0.0000
  2078 O10     19.4667  17.9775  23.0247   O.co2     1 RES1   0.0000
  2079 O12     19.4667  26.6095  21.5623   O.co2     1 RES1   0.0000
  2080 O22     -1.6319  35.5269  30.4797   O.2       1 RES1   0.0000
  2081 O24     -1.6319  26.8949  31.9421   O.2       1 RES1   0.0000
  2082 O50      5.5359  35.5394  20.0873   O.co2     1 RES1   0.0000
  2083 O52      3.3815  35.5394  24.4997   O.co2     1 RES1   0.0000
  2084 O54      2.2525  23.3707  35.5394   O.co2     1 RES1   0.0000
  2085 O56      6.6649  21.2163  35.5394   O.co2     1 RES1   0.0000
  2086 O58     17.7046  20.0873  23.3707   O.co2     1 RES1   0.0000
  2087 O60     17.7046  24.4997  21.2163   O.co2     1 RES1   0.0000
  2088 O70      0.1302  33.4171  30.1337   O.2       1 RES1   0.0000
  2089 O72      0.1302  29.0047  32.2881   O.2       1 RES1   0.0000
  2090 O77     -1.6158  21.5587  27.1785   O.2       1 RES1   0.0000
  2091 O78     -1.6158  23.0283  35.2433   O.2       1 RES1   0.0000
  2092 O85     14.1109  26.3259  37.2854   O.co2     1 RES1   0.0000
  2093 O86     12.6413  18.2611  37.2854   O.co2     1 RES1   0.0000
  2094 O89     19.4506  31.9457  26.3259   O.co2     1 RES1   0.0000
  2095 O90     19.4506  30.4761  18.2611   O.co2     1 RES1   0.0000
  2096 O93      8.4911  37.2854  31.9457   O.co2     1 RES1   0.0000
  2097 O94      0.4263  37.2854  30.4761   O.co2     1 RES1   0.0000
  2098 O97     19.1992  28.3877  16.6809   O.3       1 RES1   0.0000
  2099 O100    19.1992  34.0341  27.9061   O.3       1 RES1   0.0000
  2100 O101    -1.1539  37.0340  28.3877   O.3       1 RES1   0.0000
  2101 O102    -1.1539  25.3878  34.0341   O.3       1 RES1   0.0000
  2102 O104    10.0713  37.0340  34.0341   O.3       1 RES1   0.0000
  2103 O108    16.1993  27.9061  37.0340   O.3       1 RES1   0.0000
  2104 O109    -1.3644  25.1167  36.8235   O.3       1 RES1   0.0000
  2105 O109    16.4704  25.1167  36.8235   O.3       1 RES1   0.0000
  2106 O110    10.2818  19.4703  36.8235   O.3       1 RES1   0.0000
  2107 O112    -1.3644  19.4703  25.5983   O.3       1 RES1   0.0000
  2108 O113    18.9887  34.3052  25.1167   O.3       1 RES1   0.0000
  2109 O114    18.9887  28.1166  19.4703   O.3       1 RES1   0.0000
  2110 O117     7.2819  36.8235  34.3052   O.3       1 RES1   0.0000
  2111 O118     1.6355  36.8235  28.1166   O.3       1 RES1   0.0000
  2112 O121     1.0630  25.6892  36.7326   O.3       1 RES1   0.0000
  2113 O121    18.8978  25.6892  18.8978   O.3       1 RES1   0.0000
  2114 O122     7.8544  36.7326  18.8978   O.3       1 RES1   0.0000
  2115 O124     1.0630  36.7326  25.6892   O.3       1 RES1   0.0000
  2116 O124    18.8978  18.8978  25.6892   O.3       1 RES1   0.0000
  2117 O125    -1.0630  27.8152  34.6066   O.3       1 RES1   0.0000
  2118 O128    -1.0630  34.6066  27.8152   O.3       1 RES1   0.0000
  2119 O129    18.8978  27.9757  16.9502   O.3       1 RES1   0.0000
  2120 O132    18.8978  34.4461  27.6368   O.3       1 RES1   0.0000
  2121 O133    -0.8846  36.7326  27.9757   O.3       1 RES1   0.0000
  2122 O134    -0.8846  25.6892  34.4461   O.3       1 RES1   0.0000
  2123 O136     9.8020  36.7326  34.4461   O.3       1 RES1   0.0000
  2124 O140    16.6113  27.6368  36.7326   O.3       1 RES1   0.0000
  2125 O141    -1.0630  25.5287  36.5542   O.3       1 RES1   0.0000
  2126 O141    16.7718  25.5287  36.5542   O.3       1 RES1   0.0000
  2127 O142     9.9804  19.0583  36.5542   O.3       1 RES1   0.0000
  2128 O144    -1.0630  19.0583  25.8676   O.3       1 RES1   0.0000
  2129 O145    18.7194  34.6066  25.5287   O.3       1 RES1   0.0000
  2130 O146    18.7194  27.8152  19.0583   O.3       1 RES1   0.0000
  2131 O149     7.6939  36.5542  34.6066   O.3       1 RES1   0.0000
  2132 O150     1.2235  36.5542  27.8152   O.3       1 RES1   0.0000
  2133 O153     1.4000  25.3522  37.0696   O.3       1 RES1   0.0000
  2134 O153    19.2348  25.3522  19.2348   O.3       1 RES1   0.0000
  2135 O154     7.5174  37.0696  19.2348   O.3       1 RES1   0.0000
  2136 O156     1.4000  37.0696  25.3522   O.3       1 RES1   0.0000
  2137 O156    19.2348  19.2348  25.3522   O.3       1 RES1   0.0000
  2138 O157    -1.4000  28.1522  34.2696   O.3       1 RES1   0.0000
  2139 O160    -1.4000  34.2696  28.1522   O.3       1 RES1   0.0000
  2140 Zr3      6.4589  26.9507  44.3751   Zr        1 RES1   0.0000
  2141 Zr4      2.4585  35.4711  44.3751   Zr        1 RES1   0.0000
  2142 Zr6      0.2119  24.2937  53.3059   Zr        1 RES1   0.0000
  2143 Zr7      8.7055  24.2937  44.7855   Zr        1 RES1   0.0000
  2144 Zr11     9.1159  26.5403  42.1285   Zr        1 RES1   0.0000
  2145 Zr13    15.3763  26.5537  53.2925   Zr        1 RES1   0.0000
  2146 Zr15    11.3759  26.5537  44.7989   Zr        1 RES1   0.0000
  2147 Zr17    17.6229  33.2111  44.3885   Zr        1 RES1   0.0000
  2148 Zr19     9.1293  29.2107  44.3885   Zr        1 RES1   0.0000
  2149 Zr21     8.7189  35.4577  51.0459   Zr        1 RES1   0.0000
  2150 Zr22     0.1985  35.4577  47.0455   Zr        1 RES1   0.0000
  2151 Zr23     8.7189  26.9641  47.0455   Zr        1 RES1   0.0000
  2152 Zr24     0.1985  26.9641  51.0459   Zr        1 RES1   0.0000
  2153 O1       3.7275  25.1203  35.8123   O.co2     1 RES1   0.0000
  2154 O3       5.1899  25.1203  44.4443   O.co2     1 RES1   0.0000
  2155 O5       0.1427  21.5623  42.9551   O.co2     1 RES1   0.0000
  2156 O7       8.7747  23.0247  42.9551   O.co2     1 RES1   0.0000
  2157 O9       7.2855  17.9775  39.3971   O.co2     1 RES1   0.0000
  2158 O10      1.6319  17.9775  40.8595   O.co2     1 RES1   0.0000
  2159 O11      7.2855  26.6095  40.8595   O.co2     1 RES1   0.0000
  2160 O12      1.6319  26.6095  39.3971   O.co2     1 RES1   0.0000
  2161 O13     14.1073  28.3841  53.3617   O.co2     1 RES1   0.0000
  2162 O14     12.6449  34.0377  53.3617   O.co2     1 RES1   0.0000
  2163 O15     12.6449  28.3841  44.7297   O.co2     1 RES1   0.0000
  2164 O16     14.1073  34.0377  44.7297   O.co2     1 RES1   0.0000
  2165 O17     17.6921  31.9421  46.2189   O.co2     1 RES1   0.0000
  2166 O18     17.6921  30.4797  51.8725   O.co2     1 RES1   0.0000
  2167 O19      9.0601  30.4797  46.2189   O.co2     1 RES1   0.0000
  2168 O20      9.0601  31.9421  51.8725   O.co2     1 RES1   0.0000
  2169 O21     10.5493  35.5269  49.7769   O.co2     1 RES1   0.0000
  2170 O22     16.2029  35.5269  48.3145   O.co2     1 RES1   0.0000
  2171 O23     10.5493  26.8949  48.3145   O.co2     1 RES1   0.0000
  2172 O24     16.2029  26.8949  49.7769   O.co2     1 RES1   0.0000
  2173 O25      3.3957  28.9744  36.1083   O.co2     1 RES1   0.0000
  2174 O26      5.5217  33.4474  36.1083   O.co2     1 RES1   0.0000
  2175 O27      5.5217  28.9744  44.1483   O.co2     1 RES1   0.0000
  2176 O28      3.3957  33.4474  44.1483   O.co2     1 RES1   0.0000
  2177 O29      0.4387  21.2305  46.8092   O.co2     1 RES1   0.0000
  2178 O30      0.4387  23.3565  51.2822   O.co2     1 RES1   0.0000
  2179 O31      8.4787  23.3565  46.8092   O.co2     1 RES1   0.0000
  2180 O32      8.4787  21.2305  51.2822   O.co2     1 RES1   0.0000
  2181 O33     11.1396  18.2735  39.0653   O.co2     1 RES1   0.0000
  2182 O34     15.6126  18.2735  41.1913   O.co2     1 RES1   0.0000
  2183 O35     11.1396  26.3135  41.1913   O.co2     1 RES1   0.0000
  2184 O36     15.6126  26.3135  39.0653   O.co2     1 RES1   0.0000
  2185 O37     14.4391  24.5300  53.0657   O.co2     1 RES1   0.0000
  2186 O38     12.3131  20.0570  53.0657   O.co2     1 RES1   0.0000
  2187 O39     12.3131  24.5300  45.0257   O.co2     1 RES1   0.0000
  2188 O40     14.4391  20.0570  45.0257   O.co2     1 RES1   0.0000
  2189 O41     17.3961  32.2739  42.3648   O.co2     1 RES1   0.0000
  2190 O42     17.3961  30.1479  37.8918   O.co2     1 RES1   0.0000
  2191 O43      9.3561  30.1479  42.3648   O.co2     1 RES1   0.0000
  2192 O44      9.3561  32.2739  37.8918   O.co2     1 RES1   0.0000
  2193 O45      6.6952  35.2309  50.1087   O.co2     1 RES1   0.0000
  2194 O46      2.2222  35.2309  47.9827   O.co2     1 RES1   0.0000
  2195 O47      6.6952  27.1909  47.9827   O.co2     1 RES1   0.0000
  2196 O48      2.2222  27.1909  50.1087   O.co2     1 RES1   0.0000
  2197 O49      3.3815  26.8824  37.9221   O.co2     1 RES1   0.0000
  2198 O51      5.5359  26.8824  42.3345   O.co2     1 RES1   0.0000
  2199 O53      2.2525  21.2163  44.7172   O.co2     1 RES1   0.0000
  2200 O55      6.6649  23.3707  44.7172   O.co2     1 RES1   0.0000
  2201 O57      9.0476  20.0873  39.0511   O.co2     1 RES1   0.0000
  2202 O58     -0.1302  20.0873  41.2055   O.co2     1 RES1   0.0000
  2203 O59      9.0476  24.4997  41.2055   O.co2     1 RES1   0.0000
  2204 O60     -0.1302  24.4997  39.0511   O.co2     1 RES1   0.0000
  2205 O61     14.4533  26.6220  51.2519   O.co2     1 RES1   0.0000
  2206 O62     12.2989  35.7998  51.2519   O.co2     1 RES1   0.0000
  2207 O63     12.2989  26.6220  46.8395   O.co2     1 RES1   0.0000
  2208 O64     14.4533  35.7998  46.8395   O.co2     1 RES1   0.0000
  2209 O65     15.5823  32.2881  44.4568   O.co2     1 RES1   0.0000
  2210 O66     15.5823  30.1337  53.6346   O.co2     1 RES1   0.0000
  2211 O67     11.1699  30.1337  44.4568   O.co2     1 RES1   0.0000
  2212 O68     11.1699  32.2881  53.6346   O.co2     1 RES1   0.0000
  2213 O69      8.7872  33.4171  50.1229   O.co2     1 RES1   0.0000
  2214 O70     17.9650  33.4171  47.9685   O.co2     1 RES1   0.0000
  2215 O71      8.7872  29.0047  47.9685   O.co2     1 RES1   0.0000
  2216 O72     17.9650  29.0047  50.1229   O.co2     1 RES1   0.0000
  2217 O73      3.7239  27.1785  51.8886   O.co2     1 RES1   0.0000
  2218 O74      5.1935  35.2433  51.8886   O.co2     1 RES1   0.0000
  2219 O75      5.1935  27.1785  46.2028   O.co2     1 RES1   0.0000
  2220 O76      3.7239  35.2433  46.2028   O.co2     1 RES1   0.0000
  2221 O77     16.2190  21.5587  45.0133   O.co2     1 RES1   0.0000
  2222 O78     16.2190  23.0283  53.0781   O.co2     1 RES1   0.0000
  2223 O79     10.5332  23.0283  45.0133   O.co2     1 RES1   0.0000
  2224 O80     10.5332  21.5587  53.0781   O.co2     1 RES1   0.0000
  2225 O81      9.3437  34.0538  39.3935   O.co2     1 RES1   0.0000
  2226 O82     17.4085  34.0538  40.8631   O.co2     1 RES1   0.0000
  2227 O83      9.3437  28.3680  40.8631   O.co2     1 RES1   0.0000
  2228 O84     17.4085  28.3680  39.3935   O.co2     1 RES1   0.0000
  2229 O87     12.6413  26.3259  42.9712   O.co2     1 RES1   0.0000
  2230 O88     14.1109  18.2611  42.9712   O.co2     1 RES1   0.0000
  2231 O89      1.6158  31.9457  44.1607   O.co2     1 RES1   0.0000
  2232 O90      1.6158  30.4761  36.0959   O.co2     1 RES1   0.0000
  2233 O91      7.3016  30.4761  44.1607   O.co2     1 RES1   0.0000
  2234 O92      7.3016  31.9457  36.0959   O.co2     1 RES1   0.0000
  2235 O95      8.4911  25.1364  48.3109   O.co2     1 RES1   0.0000
  2236 O96      0.4263  25.1364  49.7805   O.co2     1 RES1   0.0000
  2237 C1       2.8607  30.1248  36.0976   C.2       1 RES1   0.0000
  2238 C2       6.0567  32.2970  36.0976   C.2       1 RES1   0.0000
  2239 C3       6.0567  30.1248  44.1590   C.2       1 RES1   0.0000
  2240 C4       2.8607  32.2970  44.1590   C.2       1 RES1   0.0000
  2241 C5       0.4280  20.6955  47.9596   C.2       1 RES1   0.0000
  2242 C6       0.4280  23.8915  50.1318   C.2       1 RES1   0.0000
  2243 C7       8.4894  23.8915  47.9596   C.2       1 RES1   0.0000
  2244 C8       8.4894  20.6955  50.1318   C.2       1 RES1   0.0000
  2245 C9      12.2900  18.2628  38.5303   C.2       1 RES1   0.0000
  2246 C10     14.4622  18.2628  41.7263   C.2       1 RES1   0.0000
  2247 C11     12.2900  26.3242  41.7263   C.2       1 RES1   0.0000
  2248 C12     14.4622  26.3242  38.5303   C.2       1 RES1   0.0000
  2249 C13     14.9741  23.3796  53.0764   C.2       1 RES1   0.0000
  2250 C14     11.7781  21.2074  53.0764   C.2       1 RES1   0.0000
  2251 C15     11.7781  23.3796  45.0150   C.2       1 RES1   0.0000
  2252 C16     14.9741  21.2074  45.0150   C.2       1 RES1   0.0000
  2253 C17     17.4068  32.8089  41.2144   C.2       1 RES1   0.0000
  2254 C18     17.4068  29.6129  39.0422   C.2       1 RES1   0.0000
  2255 C19      9.3454  29.6129  41.2144   C.2       1 RES1   0.0000
  2256 C20      9.3454  32.8089  39.0422   C.2       1 RES1   0.0000
  2257 C21      5.5448  35.2416  50.6437   C.2       1 RES1   0.0000
  2258 C22      3.3726  35.2416  47.4477   C.2       1 RES1   0.0000
  2259 C23      5.5448  27.1802  47.4477   C.2       1 RES1   0.0000
  2260 C24      3.3726  27.1802  50.6437   C.2       1 RES1   0.0000
  2261 C25      3.8202  31.3090  36.1030   C.2       1 RES1   0.0000
  2262 C26      5.0972  31.1128  36.1030   C.2       1 RES1   0.0000
  2263 C27      5.0972  31.3090  44.1536   C.2       1 RES1   0.0000
  2264 C28      3.8202  31.1128  44.1536   C.2       1 RES1   0.0000
  2265 C29      0.4334  21.6550  49.1438   C.2       1 RES1   0.0000
  2266 C30      0.4334  22.9320  48.9476   C.2       1 RES1   0.0000
  2267 C31      8.4840  22.9320  49.1438   C.2       1 RES1   0.0000
  2268 C32      8.4840  21.6550  48.9476   C.2       1 RES1   0.0000
  2269 C33     13.4742  18.2682  39.4898   C.2       1 RES1   0.0000
  2270 C34     13.2780  18.2682  40.7668   C.2       1 RES1   0.0000
  2271 C35     13.4742  26.3188  40.7668   C.2       1 RES1   0.0000
  2272 C36     13.2780  26.3188  39.4898   C.2       1 RES1   0.0000
  2273 C37     14.0146  22.1954  53.0710   C.2       1 RES1   0.0000
  2274 C38     12.7376  22.3916  53.0710   C.2       1 RES1   0.0000
  2275 C39     12.7376  22.1954  45.0204   C.2       1 RES1   0.0000
  2276 C40     14.0146  22.3916  45.0204   C.2       1 RES1   0.0000
  2277 C41     17.4014  31.8494  40.0302   C.2       1 RES1   0.0000
  2278 C42     17.4014  30.5724  40.2264   C.2       1 RES1   0.0000
  2279 C43      9.3508  30.5724  40.0302   C.2       1 RES1   0.0000
  2280 C44      9.3508  31.8494  40.2264   C.2       1 RES1   0.0000
  2281 C45      4.3606  35.2362  49.6842   C.2       1 RES1   0.0000
  2282 C46      4.5568  35.2362  48.4072   C.2       1 RES1   0.0000
  2283 C47      4.3606  27.1856  48.4072   C.2       1 RES1   0.0000
  2284 C48      4.5568  27.1856  49.6842   C.2       1 RES1   0.0000
  2285 H1       3.4867  32.1775  36.1048   H         1 RES1   0.0000
  2286 H2       5.4307  30.2443  36.1048   H         1 RES1   0.0000
  2287 H3       5.4307  32.1775  44.1518   H         1 RES1   0.0000
  2288 H4       3.4867  30.2443  44.1518   H         1 RES1   0.0000
  2289 H5       0.4352  21.3215  50.0123   H         1 RES1   0.0000
  2290 H6       0.4352  23.2655  48.0791   H         1 RES1   0.0000
  2291 H7       8.4822  23.2655  50.0123   H         1 RES1   0.0000
  2292 H8       8.4822  21.3215  48.0791   H         1 RES1   0.0000
  2293 H9      14.3427  18.2700  39.1563   H         1 RES1   0.0000
  2294 H10     12.4095  18.2700  41.1003   H         1 RES1   0.0000
  2295 H11     14.3427  26.3170  41.1003   H         1 RES1   0.0000
  2296 H12     12.4095  26.3170  39.1563   H         1 RES1   0.0000
  2297 H13     14.3481  21.3269  53.0692   H         1 RES1   0.0000
  2298 H14     12.4041  23.2601  53.0692   H         1 RES1   0.0000
  2299 H15     12.4041  21.3269  45.0222   H         1 RES1   0.0000
  2300 H16     14.3481  23.2601  45.0222   H         1 RES1   0.0000
  2301 H17     17.3996  32.1829  39.1617   H         1 RES1   0.0000
  2302 H18     17.3996  30.2389  41.0949   H         1 RES1   0.0000
  2303 H19      9.3526  30.2389  39.1617   H         1 RES1   0.0000
  2304 H20      9.3526  32.1829  41.0949   H         1 RES1   0.0000
  2305 H21      3.4921  35.2344  50.0177   H         1 RES1   0.0000
  2306 H22      5.4253  35.2344  48.0737   H         1 RES1   0.0000
  2307 H23      3.4921  27.1874  48.0737   H         1 RES1   0.0000
  2308 H24      5.4253  27.1874  50.0177   H         1 RES1   0.0000
  2309 C49      3.3993  23.8951  35.6696   C.2       1 RES1   0.0000
  2310 C50      5.5181  20.6919  35.6696   C.2       1 RES1   0.0000
  2311 C51      5.5181  23.8951  44.5870   C.2       1 RES1   0.0000
  2312 C52      3.3993  20.6919  44.5870   C.2       1 RES1   0.0000
  2313 C53      0.0000  21.2341  41.7299   C.2       1 RES1   0.0000
  2314 C54      0.0000  23.3529  38.5267   C.2       1 RES1   0.0000
  2315 C55      8.9174  23.3529  41.7299   C.2       1 RES1   0.0000
  2316 C56      8.9174  21.2341  38.5267   C.2       1 RES1   0.0000
  2317 C57      6.0603  17.8348  39.0689   C.2       1 RES1   0.0000
  2318 C58      2.8571  17.8348  41.1877   C.2       1 RES1   0.0000
  2319 C59      6.0603  26.7522  41.1877   C.2       1 RES1   0.0000
  2320 C60      2.8571  26.7522  39.0689   C.2       1 RES1   0.0000
  2321 C61     14.4355  29.6093  53.5044   C.2       1 RES1   0.0000
  2322 C62     12.3167  32.8125  53.5044   C.2       1 RES1   0.0000
  2323 C63     12.3167  29.6093  44.5870   C.2       1 RES1   0.0000
  2324 C64     14.4355  32.8125  44.5870   C.2       1 RES1   0.0000
  2325 C65     17.8348  32.2703  47.4441   C.2       1 RES1   0.0000
  2326 C66     17.8348  30.1515  50.6473   C.2       1 RES1   0.0000
  2327 C67      8.9174  30.1515  47.4441   C.2       1 RES1   0.0000
  2328 C68      8.9174  32.2703  50.6473   C.2       1 RES1   0.0000
  2329 C69     11.7745  35.6696  50.1051   C.2       1 RES1   0.0000
  2330 C70     14.9777  35.6696  47.9863   C.2       1 RES1   0.0000
  2331 C71     11.7745  26.7522  47.9863   C.2       1 RES1   0.0000
  2332 C72     14.9777  26.7522  50.1051   C.2       1 RES1   0.0000
  2333 C73      4.5782  22.9445  35.6714   C.2       1 RES1   0.0000
  2334 C74      4.3392  21.6425  35.6714   C.2       1 RES1   0.0000
  2335 C75      4.3392  22.9445  44.5852   C.2       1 RES1   0.0000
  2336 C76      4.5782  21.6425  44.5852   C.2       1 RES1   0.0000
  2337 C77      0.0018  22.4130  40.7793   C.2       1 RES1   0.0000
  2338 C78      0.0018  22.1740  39.4773   C.2       1 RES1   0.0000
  2339 C79      8.9156  22.1740  40.7793   C.2       1 RES1   0.0000
  2340 C80      8.9156  22.4130  39.4773   C.2       1 RES1   0.0000
  2341 C81      5.1097  17.8366  40.2478   C.2       1 RES1   0.0000
  2342 C82      3.8077  17.8366  40.0088   C.2       1 RES1   0.0000
  2343 C83      5.1097  26.7504  40.0088   C.2       1 RES1   0.0000
  2344 C84      3.8077  26.7504  40.2478   C.2       1 RES1   0.0000
  2345 C85     13.2566  30.5599  53.5026   C.2       1 RES1   0.0000
  2346 C86     13.4956  31.8619  53.5026   C.2       1 RES1   0.0000
  2347 C87     13.4956  30.5599  44.5888   C.2       1 RES1   0.0000
  2348 C88     13.2566  31.8619  44.5888   C.2       1 RES1   0.0000
  2349 C89     17.8330  31.0914  48.3947   C.2       1 RES1   0.0000
  2350 C90     17.8330  31.3304  49.6967   C.2       1 RES1   0.0000
  2351 C91      8.9192  31.3304  48.3947   C.2       1 RES1   0.0000
  2352 C92      8.9192  31.0914  49.6967   C.2       1 RES1   0.0000
  2353 C93     12.7251  35.6678  48.9262   C.2       1 RES1   0.0000
  2354 C94     14.0271  35.6678  49.1652   C.2       1 RES1   0.0000
  2355 C95     12.7251  26.7540  49.1652   C.2       1 RES1   0.0000
  2356 C96     14.0271  26.7540  48.9262   C.2       1 RES1   0.0000
  2357 H25      5.4503  23.2673  35.6714   H         1 RES1   0.0000
  2358 H26      3.4671  21.3197  35.6714   H         1 RES1   0.0000
  2359 H27      3.4671  23.2673  44.5852   H         1 RES1   0.0000
  2360 H28      5.4503  21.3197  44.5852   H         1 RES1   0.0000
  2361 H29      0.0018  23.2851  41.1021   H         1 RES1   0.0000
  2362 H30      0.0018  21.3019  39.1545   H         1 RES1   0.0000
  2363 H31      8.9156  21.3019  41.1021   H         1 RES1   0.0000
  2364 H32      8.9156  23.2851  39.1545   H         1 RES1   0.0000
  2365 H33      5.4325  17.8366  41.1199   H         1 RES1   0.0000
  2366 H34      3.4849  17.8366  39.1367   H         1 RES1   0.0000
  2367 H35      5.4325  26.7504  39.1367   H         1 RES1   0.0000
  2368 H36      3.4849  26.7504  41.1199   H         1 RES1   0.0000
  2369 H37     12.3845  30.2371  53.5026   H         1 RES1   0.0000
  2370 H38     14.3677  32.1847  53.5026   H         1 RES1   0.0000
  2371 H39     14.3677  30.2371  44.5888   H         1 RES1   0.0000
  2372 H40     12.3845  32.1847  44.5888   H         1 RES1   0.0000
  2373 H41     17.8330  30.2193  48.0719   H         1 RES1   0.0000
  2374 H42     17.8330  32.2025  50.0195   H         1 RES1   0.0000
  2375 H43      8.9192  32.2025  48.0719   H         1 RES1   0.0000
  2376 H44      8.9192  30.2193  50.0195   H         1 RES1   0.0000
  2377 H45     12.4023  35.6678  48.0541   H         1 RES1   0.0000
  2378 H46     14.3499  35.6678  50.0373   H         1 RES1   0.0000
  2379 H47     12.4023  26.7540  50.0373   H         1 RES1   0.0000
  2380 H48     14.3499  26.7540  48.0541   H         1 RES1   0.0000
  2381 O97      1.3644  28.3877  52.3505   O.3       1 RES1   0.0000
  2382 O98      7.5530  34.0341  52.3505   O.3       1 RES1   0.0000
  2383 O99      7.5530  28.3877  45.7409   O.3       1 RES1   0.0000
  2384 O100     1.3644  34.0341  45.7409   O.3       1 RES1   0.0000
  2385 O101    16.6809  19.1992  46.2225   O.3       1 RES1   0.0000
  2386 O102    16.6809  25.3878  51.8689   O.3       1 RES1   0.0000
  2387 O103    10.0713  25.3878  46.2225   O.3       1 RES1   0.0000
  2388 O105    10.5529  34.5157  37.0340   O.3       1 RES1   0.0000
  2389 O106    16.1993  34.5157  43.2226   O.3       1 RES1   0.0000
  2390 O107    10.5529  27.9061  43.2226   O.3       1 RES1   0.0000
  2391 O111    10.2818  25.1167  43.4331   O.3       1 RES1   0.0000
  2392 O112    16.4704  19.4703  43.4331   O.3       1 RES1   0.0000
  2393 O113     1.1539  34.3052  42.9515   O.3       1 RES1   0.0000
  2394 O114     1.1539  28.1166  37.3051   O.3       1 RES1   0.0000
  2395 O115     7.7635  28.1166  42.9515   O.3       1 RES1   0.0000
  2396 O116     7.7635  34.3052  37.3051   O.3       1 RES1   0.0000
  2397 O119     7.2819  25.5983  45.9514   O.3       1 RES1   0.0000
  2398 O120     1.6355  25.5983  52.1400   O.3       1 RES1   0.0000
  2399 O123     7.8544  25.6892  43.5240   O.3       1 RES1   0.0000
  2400 O125    16.7718  27.8152  52.4414   O.3       1 RES1   0.0000
  2401 O126     9.9804  34.6066  52.4414   O.3       1 RES1   0.0000
  2402 O127     9.9804  27.8152  45.6500   O.3       1 RES1   0.0000
  2403 O128    16.7718  34.6066  45.6500   O.3       1 RES1   0.0000
  2404 O129     1.0630  27.9757  52.6198   O.3       1 RES1   0.0000
  2405 O130     7.8544  34.4461  52.6198   O.3       1 RES1   0.0000
  2406 O131     7.8544  27.9757  45.4716   O.3       1 RES1   0.0000
  2407 O132     1.0630  34.4461  45.4716   O.3       1 RES1   0.0000
  2408 O133    16.9502  18.8978  45.8105   O.3       1 RES1   0.0000
  2409 O134    16.9502  25.6892  52.2809   O.3       1 RES1   0.0000
  2410 O135     9.8020  25.6892  45.8105   O.3       1 RES1   0.0000
  2411 O137    10.1409  34.7850  36.7326   O.3       1 RES1   0.0000
  2412 O138    16.6113  34.7850  43.5240   O.3       1 RES1   0.0000
  2413 O139    10.1409  27.6368  43.5240   O.3       1 RES1   0.0000
  2414 O143     9.9804  25.5287  43.7024   O.3       1 RES1   0.0000
  2415 O144    16.7718  19.0583  43.7024   O.3       1 RES1   0.0000
  2416 O145     0.8846  34.6066  43.3635   O.3       1 RES1   0.0000
  2417 O146     0.8846  27.8152  36.8931   O.3       1 RES1   0.0000
  2418 O147     8.0328  27.8152  43.3635   O.3       1 RES1   0.0000
  2419 O148     8.0328  34.6066  36.8931   O.3       1 RES1   0.0000
  2420 O151     7.6939  25.8676  45.6500   O.3       1 RES1   0.0000
  2421 O152     1.2235  25.8676  52.4414   O.3       1 RES1   0.0000
  2422 O155     7.5174  25.3522  43.1870   O.3       1 RES1   0.0000
  2423 O157    16.4348  28.1522  52.1044   O.3       1 RES1   0.0000
  2424 O158    10.3174  34.2696  52.1044   O.3       1 RES1   0.0000
  2425 O159    10.3174  28.1522  45.9870   O.3       1 RES1   0.0000
  2426 O160    16.4348  34.2696  45.9870   O.3       1 RES1   0.0000
  2427 Zr1      2.4585  26.9507  53.7163   Zr        1 RES1   0.0000
  2428 Zr1     20.2933  26.9507  35.8815   Zr        1 RES1   0.0000
  2429 Zr2      6.4589  35.4711  53.7163   Zr        1 RES1   0.0000
  2430 Zr4     20.2933  35.4711  44.3751   Zr        1 RES1   0.0000
  2431 Zr5      0.2119  38.1281  44.7855   Zr        1 RES1   0.0000
  2432 Zr5     18.0467  20.2933  44.7855   Zr        1 RES1   0.0000
  2433 Zr6     18.0467  24.2937  53.3059   Zr        1 RES1   0.0000
  2434 Zr8      8.7055  38.1281  53.3059   Zr        1 RES1   0.0000
  2435 Zr9      9.1159  18.0467  55.9629   Zr        1 RES1   0.0000
  2436 Zr9      9.1159  35.8815  38.1281   Zr        1 RES1   0.0000
  2437 Zr10    -0.1985  35.8815  42.1285   Zr        1 RES1   0.0000
  2438 Zr10    17.6363  35.8815  42.1285   Zr        1 RES1   0.0000
  2439 Zr12    -0.1985  26.5403  55.9629   Zr        1 RES1   0.0000
  2440 Zr12    17.6363  26.5403  55.9629   Zr        1 RES1   0.0000
  2441 Zr13    -2.4585  26.5537  53.2925   Zr        1 RES1   0.0000
  2442 Zr14    11.3759  35.8681  53.2925   Zr        1 RES1   0.0000
  2443 Zr16    -2.4585  35.8681  44.7989   Zr        1 RES1   0.0000
  2444 Zr16    15.3763  35.8681  44.7989   Zr        1 RES1   0.0000
  2445 Zr17    -0.2119  33.2111  44.3885   Zr        1 RES1   0.0000
  2446 Zr18    -0.2119  29.2107  53.7029   Zr        1 RES1   0.0000
  2447 Zr18    17.6229  29.2107  53.7029   Zr        1 RES1   0.0000
  2448 Zr20     9.1293  33.2111  53.7029   Zr        1 RES1   0.0000
  2449 Zr22    18.0333  35.4577  47.0455   Zr        1 RES1   0.0000
  2450 Zr24    18.0333  26.9641  51.0459   Zr        1 RES1   0.0000
  2451 O2       5.1899  37.3015  35.8123   O.co2     1 RES1   0.0000
  2452 O4       3.7275  37.3015  44.4443   O.co2     1 RES1   0.0000
  2453 O6       0.1427  23.0247  55.1363   O.2       1 RES1   0.0000
  2454 O8       8.7747  21.5623  55.1363   O.2       1 RES1   0.0000
  2455 O10     19.4667  17.9775  40.8595   O.co2     1 RES1   0.0000
  2456 O12     19.4667  26.6095  39.3971   O.co2     1 RES1   0.0000
  2457 O22     -1.6319  35.5269  48.3145   O.2       1 RES1   0.0000
  2458 O24     -1.6319  26.8949  49.7769   O.2       1 RES1   0.0000
  2459 O50      5.5359  35.5394  37.9221   O.co2     1 RES1   0.0000
  2460 O52      3.3815  35.5394  42.3345   O.co2     1 RES1   0.0000
  2461 O54      2.2525  23.3707  53.3742   O.2       1 RES1   0.0000
  2462 O56      6.6649  21.2163  53.3742   O.2       1 RES1   0.0000
  2463 O58     17.7046  20.0873  41.2055   O.co2     1 RES1   0.0000
  2464 O60     17.7046  24.4997  39.0511   O.co2     1 RES1   0.0000
  2465 O70      0.1302  33.4171  47.9685   O.2       1 RES1   0.0000
  2466 O72      0.1302  29.0047  50.1229   O.2       1 RES1   0.0000
  2467 O77     -1.6158  21.5587  45.0133   O.2       1 RES1   0.0000
  2468 O78     -1.6158  23.0283  53.0781   O.2       1 RES1   0.0000
  2469 O85     14.1109  26.3259  55.1202   O.2       1 RES1   0.0000
  2470 O86     12.6413  18.2611  55.1202   O.2       1 RES1   0.0000
  2471 O89     19.4506  31.9457  44.1607   O.co2     1 RES1   0.0000
  2472 O90     19.4506  30.4761  36.0959   O.co2     1 RES1   0.0000
  2473 O93      8.4911  37.2854  49.7805   O.co2     1 RES1   0.0000
  2474 O94      0.4263  37.2854  48.3109   O.co2     1 RES1   0.0000
  2475 O97     19.1992  28.3877  34.5157   O.3       1 RES1   0.0000
  2476 O100    19.1992  34.0341  45.7409   O.3       1 RES1   0.0000
  2477 O101    -1.1539  37.0340  46.2225   O.3       1 RES1   0.0000
  2478 O102    -1.1539  25.3878  51.8689   O.3       1 RES1   0.0000
  2479 O104    10.0713  37.0340  51.8689   O.3       1 RES1   0.0000
  2480 O105    10.5529  16.6809  54.8688   O.3       1 RES1   0.0000
  2481 O108    16.1993  27.9061  54.8688   O.3       1 RES1   0.0000
  2482 O109    -1.3644  25.1167  54.6583   O.3       1 RES1   0.0000
  2483 O109    16.4704  25.1167  54.6583   O.3       1 RES1   0.0000
  2484 O110    10.2818  19.4703  54.6583   O.3       1 RES1   0.0000
  2485 O112    -1.3644  19.4703  43.4331   O.3       1 RES1   0.0000
  2486 O113    18.9887  34.3052  42.9515   O.3       1 RES1   0.0000
  2487 O114    18.9887  28.1166  37.3051   O.3       1 RES1   0.0000
  2488 O117     7.2819  36.8235  52.1400   O.3       1 RES1   0.0000
  2489 O118     1.6355  36.8235  45.9514   O.3       1 RES1   0.0000
  2490 O121     1.0630  25.6892  54.5674   O.3       1 RES1   0.0000
  2491 O121    18.8978  25.6892  36.7326   O.3       1 RES1   0.0000
  2492 O122     7.8544  18.8978  54.5674   O.3       1 RES1   0.0000
  2493 O122     7.8544  36.7326  36.7326   O.3       1 RES1   0.0000
  2494 O124     1.0630  36.7326  43.5240   O.3       1 RES1   0.0000
  2495 O124    18.8978  18.8978  43.5240   O.3       1 RES1   0.0000
  2496 O125    -1.0630  27.8152  52.4414   O.3       1 RES1   0.0000
  2497 O128    -1.0630  34.6066  45.6500   O.3       1 RES1   0.0000
  2498 O129    18.8978  27.9757  34.7850   O.3       1 RES1   0.0000
  2499 O132    18.8978  34.4461  45.4716   O.3       1 RES1   0.0000
  2500 O133    -0.8846  36.7326  45.8105   O.3       1 RES1   0.0000
  2501 O134    -0.8846  25.6892  52.2809   O.3       1 RES1   0.0000
  2502 O136     9.8020  36.7326  52.2809   O.3       1 RES1   0.0000
  2503 O137    10.1409  16.9502  54.5674   O.3       1 RES1   0.0000
  2504 O140    16.6113  27.6368  54.5674   O.3       1 RES1   0.0000
  2505 O141    -1.0630  25.5287  54.3890   O.3       1 RES1   0.0000
  2506 O141    16.7718  25.5287  54.3890   O.3       1 RES1   0.0000
  2507 O142     9.9804  19.0583  54.3890   O.3       1 RES1   0.0000
  2508 O144    -1.0630  19.0583  43.7024   O.3       1 RES1   0.0000
  2509 O145    18.7194  34.6066  43.3635   O.3       1 RES1   0.0000
  2510 O146    18.7194  27.8152  36.8931   O.3       1 RES1   0.0000
  2511 O149     7.6939  36.5542  52.4414   O.3       1 RES1   0.0000
  2512 O150     1.2235  36.5542  45.6500   O.3       1 RES1   0.0000
  2513 O153     1.4000  25.3522  54.9044   O.3       1 RES1   0.0000
  2514 O153    19.2348  25.3522  37.0696   O.3       1 RES1   0.0000
  2515 O154     7.5174  19.2348  54.9044   O.3       1 RES1   0.0000
  2516 O154     7.5174  37.0696  37.0696   O.3       1 RES1   0.0000
  2517 O156     1.4000  37.0696  43.1870   O.3       1 RES1   0.0000
  2518 O156    19.2348  19.2348  43.1870   O.3       1 RES1   0.0000
  2519 O157    -1.4000  28.1522  52.1044   O.3       1 RES1   0.0000
  2520 O160    -1.4000  34.2696  45.9870   O.3       1 RES1   0.0000
  2521 Zr1      2.4585  44.7855   0.2119   Zr        1 RES1   0.0000
  2522 Zr2      6.4589  53.3059   0.2119   Zr        1 RES1   0.0000
  2523 Zr3      6.4589  44.7855   8.7055   Zr        1 RES1   0.0000
  2524 Zr4      2.4585  53.3059   8.7055   Zr        1 RES1   0.0000
  2525 Zr6      0.2119  42.1285  17.6363   Zr        1 RES1   0.0000
  2526 Zr7      8.7055  42.1285   9.1159   Zr        1 RES1   0.0000
  2527 Zr11     9.1159  44.3751   6.4589   Zr        1 RES1   0.0000
  2528 Zr12    17.6363  44.3751   2.4585   Zr        1 RES1   0.0000
  2529 Zr13    15.3763  44.3885  17.6229   Zr        1 RES1   0.0000
  2530 Zr15    11.3759  44.3885   9.1293   Zr        1 RES1   0.0000
  2531 Zr17    17.6229  51.0459   8.7189   Zr        1 RES1   0.0000
  2532 Zr18    17.6229  47.0455   0.1985   Zr        1 RES1   0.0000
  2533 Zr19     9.1293  47.0455   8.7189   Zr        1 RES1   0.0000
  2534 Zr20     9.1293  51.0459   0.1985   Zr        1 RES1   0.0000
  2535 Zr21     8.7189  53.2925  15.3763   Zr        1 RES1   0.0000
  2536 Zr22     0.1985  53.2925  11.3759   Zr        1 RES1   0.0000
  2537 Zr23     8.7189  44.7989  11.3759   Zr        1 RES1   0.0000
  2538 Zr24     0.1985  44.7989  15.3763   Zr        1 RES1   0.0000
  2539 O1       3.7275  42.9551   0.1427   O.co2     1 RES1   0.0000
  2540 O3       5.1899  42.9551   8.7747   O.co2     1 RES1   0.0000
  2541 O5       0.1427  39.3971   7.2855   O.co2     1 RES1   0.0000
  2542 O6       0.1427  40.8595   1.6319   O.co2     1 RES1   0.0000
  2543 O7       8.7747  40.8595   7.2855   O.co2     1 RES1   0.0000
  2544 O8       8.7747  39.3971   1.6319   O.co2     1 RES1   0.0000
  2545 O9       7.2855  35.8123   3.7275   O.co2     1 RES1   0.0000
  2546 O10      1.6319  35.8123   5.1899   O.co2     1 RES1   0.0000
  2547 O11      7.2855  44.4443   5.1899   O.co2     1 RES1   0.0000
  2548 O12      1.6319  44.4443   3.7275   O.co2     1 RES1   0.0000
  2549 O13     14.1073  46.2189  17.6921   O.co2     1 RES1   0.0000
  2550 O14     12.6449  51.8725  17.6921   O.co2     1 RES1   0.0000
  2551 O15     12.6449  46.2189   9.0601   O.co2     1 RES1   0.0000
  2552 O16     14.1073  51.8725   9.0601   O.co2     1 RES1   0.0000
  2553 O17     17.6921  49.7769  10.5493   O.co2     1 RES1   0.0000
  2554 O18     17.6921  48.3145  16.2029   O.co2     1 RES1   0.0000
  2555 O19      9.0601  48.3145  10.5493   O.co2     1 RES1   0.0000
  2556 O20      9.0601  49.7769  16.2029   O.co2     1 RES1   0.0000
  2557 O21     10.5493  53.3617  14.1073   O.co2     1 RES1   0.0000
  2558 O22     16.2029  53.3617  12.6449   O.co2     1 RES1   0.0000
  2559 O23     10.5493  44.7297  12.6449   O.co2     1 RES1   0.0000
  2560 O24     16.2029  44.7297  14.1073   O.co2     1 RES1   0.0000
  2561 O25      3.3957  46.8092   0.4387   O.co2     1 RES1   0.0000
  2562 O26      5.5217  51.2822   0.4387   O.co2     1 RES1   0.0000
  2563 O27      5.5217  46.8092   8.4787   O.co2     1 RES1   0.0000
  2564 O28      3.3957  51.2822   8.4787   O.co2     1 RES1   0.0000
  2565 O29      0.4387  39.0653  11.1396   O.co2     1 RES1   0.0000
  2566 O30      0.4387  41.1913  15.6126   O.co2     1 RES1   0.0000
  2567 O31      8.4787  41.1913  11.1396   O.co2     1 RES1   0.0000
  2568 O32      8.4787  39.0653  15.6126   O.co2     1 RES1   0.0000
  2569 O33     11.1396  36.1083   3.3957   O.co2     1 RES1   0.0000
  2570 O34     15.6126  36.1083   5.5217   O.co2     1 RES1   0.0000
  2571 O35     11.1396  44.1483   5.5217   O.co2     1 RES1   0.0000
  2572 O36     15.6126  44.1483   3.3957   O.co2     1 RES1   0.0000
  2573 O37     14.4391  42.3648  17.3961   O.co2     1 RES1   0.0000
  2574 O38     12.3131  37.8918  17.3961   O.co2     1 RES1   0.0000
  2575 O39     12.3131  42.3648   9.3561   O.co2     1 RES1   0.0000
  2576 O40     14.4391  37.8918   9.3561   O.co2     1 RES1   0.0000
  2577 O41     17.3961  50.1087   6.6952   O.co2     1 RES1   0.0000
  2578 O42     17.3961  47.9827   2.2222   O.co2     1 RES1   0.0000
  2579 O43      9.3561  47.9827   6.6952   O.co2     1 RES1   0.0000
  2580 O44      9.3561  50.1087   2.2222   O.co2     1 RES1   0.0000
  2581 O45      6.6952  53.0657  14.4391   O.co2     1 RES1   0.0000
  2582 O46      2.2222  53.0657  12.3131   O.co2     1 RES1   0.0000
  2583 O47      6.6952  45.0257  12.3131   O.co2     1 RES1   0.0000
  2584 O48      2.2222  45.0257  14.4391   O.co2     1 RES1   0.0000
  2585 O49      3.3815  44.7172   2.2525   O.co2     1 RES1   0.0000
  2586 O51      5.5359  44.7172   6.6649   O.co2     1 RES1   0.0000
  2587 O53      2.2525  39.0511   9.0476   O.co2     1 RES1   0.0000
  2588 O54      2.2525  41.2055  -0.1302   O.co2     1 RES1   0.0000
  2589 O55      6.6649  41.2055   9.0476   O.co2     1 RES1   0.0000
  2590 O56      6.6649  39.0511  -0.1302   O.co2     1 RES1   0.0000
  2591 O57      9.0476  37.9221   3.3815   O.co2     1 RES1   0.0000
  2592 O58     -0.1302  37.9221   5.5359   O.co2     1 RES1   0.0000
  2593 O59      9.0476  42.3345   5.5359   O.co2     1 RES1   0.0000
  2594 O60     -0.1302  42.3345   3.3815   O.co2     1 RES1   0.0000
  2595 O61     14.4533  44.4568  15.5823   O.co2     1 RES1   0.0000
  2596 O62     12.2989  53.6346  15.5823   O.co2     1 RES1   0.0000
  2597 O63     12.2989  44.4568  11.1699   O.co2     1 RES1   0.0000
  2598 O64     14.4533  53.6346  11.1699   O.co2     1 RES1   0.0000
  2599 O65     15.5823  50.1229   8.7872   O.co2     1 RES1   0.0000
  2600 O66     15.5823  47.9685  17.9650   O.co2     1 RES1   0.0000
  2601 O67     11.1699  47.9685   8.7872   O.co2     1 RES1   0.0000
  2602 O68     11.1699  50.1229  17.9650   O.co2     1 RES1   0.0000
  2603 O69      8.7872  51.2519  14.4533   O.co2     1 RES1   0.0000
  2604 O70     17.9650  51.2519  12.2989   O.co2     1 RES1   0.0000
  2605 O71      8.7872  46.8395  12.2989   O.co2     1 RES1   0.0000
  2606 O72     17.9650  46.8395  14.4533   O.co2     1 RES1   0.0000
  2607 O73      3.7239  45.0133  16.2190   O.co2     1 RES1   0.0000
  2608 O74      5.1935  53.0781  16.2190   O.co2     1 RES1   0.0000
  2609 O75      5.1935  45.0133  10.5332   O.co2     1 RES1   0.0000
  2610 O76      3.7239  53.0781  10.5332   O.co2     1 RES1   0.0000
  2611 O77     16.2190  39.3935   9.3437   O.co2     1 RES1   0.0000
  2612 O78     16.2190  40.8631  17.4085   O.co2     1 RES1   0.0000
  2613 O79     10.5332  40.8631   9.3437   O.co2     1 RES1   0.0000
  2614 O80     10.5332  39.3935  17.4085   O.co2     1 RES1   0.0000
  2615 O81      9.3437  51.8886   3.7239   O.co2     1 RES1   0.0000
  2616 O82     17.4085  51.8886   5.1935   O.co2     1 RES1   0.0000
  2617 O83      9.3437  46.2028   5.1935   O.co2     1 RES1   0.0000
  2618 O84     17.4085  46.2028   3.7239   O.co2     1 RES1   0.0000
  2619 O85     14.1109  44.1607   1.6158   O.co2     1 RES1   0.0000
  2620 O86     12.6413  36.0959   1.6158   O.co2     1 RES1   0.0000
  2621 O87     12.6413  44.1607   7.3016   O.co2     1 RES1   0.0000
  2622 O88     14.1109  36.0959   7.3016   O.co2     1 RES1   0.0000
  2623 O89      1.6158  49.7805   8.4911   O.co2     1 RES1   0.0000
  2624 O90      1.6158  48.3109   0.4263   O.co2     1 RES1   0.0000
  2625 O91      7.3016  48.3109   8.4911   O.co2     1 RES1   0.0000
  2626 O92      7.3016  49.7805   0.4263   O.co2     1 RES1   0.0000
  2627 O95      8.4911  42.9712  12.6413   O.co2     1 RES1   0.0000
  2628 O96      0.4263  42.9712  14.1109   O.co2     1 RES1   0.0000
  2629 C1       2.8607  47.9596   0.4280   C.2       1 RES1   0.0000
  2630 C2       6.0567  50.1318   0.4280   C.2       1 RES1   0.0000
  2631 C3       6.0567  47.9596   8.4894   C.2       1 RES1   0.0000
  2632 C4       2.8607  50.1318   8.4894   C.2       1 RES1   0.0000
  2633 C5       0.4280  38.5303  12.2900   C.2       1 RES1   0.0000
  2634 C6       0.4280  41.7263  14.4622   C.2       1 RES1   0.0000
  2635 C7       8.4894  41.7263  12.2900   C.2       1 RES1   0.0000
  2636 C8       8.4894  38.5303  14.4622   C.2       1 RES1   0.0000
  2637 C9      12.2900  36.0976   2.8607   C.2       1 RES1   0.0000
  2638 C10     14.4622  36.0976   6.0567   C.2       1 RES1   0.0000
  2639 C11     12.2900  44.1590   6.0567   C.2       1 RES1   0.0000
  2640 C12     14.4622  44.1590   2.8607   C.2       1 RES1   0.0000
  2641 C13     14.9741  41.2144  17.4068   C.2       1 RES1   0.0000
  2642 C14     11.7781  39.0422  17.4068   C.2       1 RES1   0.0000
  2643 C15     11.7781  41.2144   9.3454   C.2       1 RES1   0.0000
  2644 C16     14.9741  39.0422   9.3454   C.2       1 RES1   0.0000
  2645 C17     17.4068  50.6437   5.5448   C.2       1 RES1   0.0000
  2646 C18     17.4068  47.4477   3.3726   C.2       1 RES1   0.0000
  2647 C19      9.3454  47.4477   5.5448   C.2       1 RES1   0.0000
  2648 C20      9.3454  50.6437   3.3726   C.2       1 RES1   0.0000
  2649 C21      5.5448  53.0764  14.9741   C.2       1 RES1   0.0000
  2650 C22      3.3726  53.0764  11.7781   C.2       1 RES1   0.0000
  2651 C23      5.5448  45.0150  11.7781   C.2       1 RES1   0.0000
  2652 C24      3.3726  45.0150  14.9741   C.2       1 RES1   0.0000
  2653 C25      3.8202  49.1438   0.4334   C.2       1 RES1   0.0000
  2654 C26      5.0972  48.9476   0.4334   C.2       1 RES1   0.0000
  2655 C27      5.0972  49.1438   8.4840   C.2       1 RES1   0.0000
  2656 C28      3.8202  48.9476   8.4840   C.2       1 RES1   0.0000
  2657 C29      0.4334  39.4898  13.4742   C.2       1 RES1   0.0000
  2658 C30      0.4334  40.7668  13.2780   C.2       1 RES1   0.0000
  2659 C31      8.4840  40.7668  13.4742   C.2       1 RES1   0.0000
  2660 C32      8.4840  39.4898  13.2780   C.2       1 RES1   0.0000
  2661 C33     13.4742  36.1030   3.8202   C.2       1 RES1   0.0000
  2662 C34     13.2780  36.1030   5.0972   C.2       1 RES1   0.0000
  2663 C35     13.4742  44.1536   5.0972   C.2       1 RES1   0.0000
  2664 C36     13.2780  44.1536   3.8202   C.2       1 RES1   0.0000
  2665 C37     14.0146  40.0302  17.4014   C.2       1 RES1   0.0000
  2666 C38     12.7376  40.2264  17.4014   C.2       1 RES1   0.0000
  2667 C39     12.7376  40.0302   9.3508   C.2       1 RES1   0.0000
  2668 C40     14.0146  40.2264   9.3508   C.2       1 RES1   0.0000
  2669 C41     17.4014  49.6842   4.3606   C.2       1 RES1   0.0000
  2670 C42     17.4014  48.4072   4.5568   C.2       1 RES1   0.0000
  2671 C43      9.3508  48.4072   4.3606   C.2       1 RES1   0.0000
  2672 C44      9.3508  49.6842   4.5568   C.2       1 RES1   0.0000
  2673 C45      4.3606  53.0710  14.0146   C.2       1 RES1   0.0000
  2674 C46      4.5568  53.0710  12.7376   C.2       1 RES1   0.0000
  2675 C47      4.3606  45.0204  12.7376   C.2       1 RES1   0.0000
  2676 C48      4.5568  45.0204  14.0146   C.2       1 RES1   0.0000
  2677 H1       3.4867  50.0123   0.4352   H         1 RES1   0.0000
  2678 H2       5.4307  48.0791   0.4352   H         1 RES1   0.0000
  2679 H3       5.4307  50.0123   8.4822   H         1 RES1   0.0000
  2680 H4       3.4867  48.0791   8.4822   H         1 RES1   0.0000
  2681 H5       0.4352  39.1563  14.3427   H         1 RES1   0.0000
  2682 H6       0.4352  41.1003  12.4095   H         1 RES1   0.0000
  2683 H7       8.4822  41.1003  14.3427   H         1 RES1   0.0000
  2684 H8       8.4822  39.1563  12.4095   H         1 RES1   0.0000
  2685 H9      14.3427  36.1048   3.4867   H         1 RES1   0.0000
  2686 H10     12.4095  36.1048   5.4307   H         1 RES1   0.0000
  2687 H11     14.3427  44.1518   5.4307   H         1 RES1   0.0000
  2688 H12     12.4095  44.1518   3.4867   H         1 RES1   0.0000
  2689 H13     14.3481  39.1617  17.3996   H         1 RES1   0.0000
  2690 H14     12.4041  41.0949  17.3996   H         1 RES1   0.0000
  2691 H15     12.4041  39.1617   9.3526   H         1 RES1   0.0000
  2692 H16     14.3481  41.0949   9.3526   H         1 RES1   0.0000
  2693 H17     17.3996  50.0177   3.4921   H         1 RES1   0.0000
  2694 H18     17.3996  48.0737   5.4253   H         1 RES1   0.0000
  2695 H19      9.3526  48.0737   3.4921   H         1 RES1   0.0000
  2696 H20      9.3526  50.0177   5.4253   H         1 RES1   0.0000
  2697 H21      3.4921  53.0692  14.3481   H         1 RES1   0.0000
  2698 H22      5.4253  53.0692  12.4041   H         1 RES1   0.0000
  2699 H23      3.4921  45.0222  12.4041   H         1 RES1   0.0000
  2700 H24      5.4253  45.0222  14.3481   H         1 RES1   0.0000
  2701 C49      3.3993  41.7299   0.0000   C.2       1 RES1   0.0000
  2702 C50      5.5181  38.5267   0.0000   C.2       1 RES1   0.0000
  2703 C51      5.5181  41.7299   8.9174   C.2       1 RES1   0.0000
  2704 C52      3.3993  38.5267   8.9174   C.2       1 RES1   0.0000
  2705 C53      0.0000  39.0689   6.0603   C.2       1 RES1   0.0000
  2706 C54      0.0000  41.1877   2.8571   C.2       1 RES1   0.0000
  2707 C55      8.9174  41.1877   6.0603   C.2       1 RES1   0.0000
  2708 C56      8.9174  39.0689   2.8571   C.2       1 RES1   0.0000
  2709 C57      6.0603  35.6696   3.3993   C.2       1 RES1   0.0000
  2710 C58      2.8571  35.6696   5.5181   C.2       1 RES1   0.0000
  2711 C59      6.0603  44.5870   5.5181   C.2       1 RES1   0.0000
  2712 C60      2.8571  44.5870   3.3993   C.2       1 RES1   0.0000
  2713 C61     14.4355  47.4441  17.8348   C.2       1 RES1   0.0000
  2714 C62     12.3167  50.6473  17.8348   C.2       1 RES1   0.0000
  2715 C63     12.3167  47.4441   8.9174   C.2       1 RES1   0.0000
  2716 C64     14.4355  50.6473   8.9174   C.2       1 RES1   0.0000
  2717 C65     17.8348  50.1051  11.7745   C.2       1 RES1   0.0000
  2718 C66     17.8348  47.9863  14.9777   C.2       1 RES1   0.0000
  2719 C67      8.9174  47.9863  11.7745   C.2       1 RES1   0.0000
  2720 C68      8.9174  50.1051  14.9777   C.2       1 RES1   0.0000
  2721 C69     11.7745  53.5044  14.4355   C.2       1 RES1   0.0000
  2722 C70     14.9777  53.5044  12.3167   C.2       1 RES1   0.0000
  2723 C71     11.7745  44.5870  12.3167   C.2       1 RES1   0.0000
  2724 C72     14.9777  44.5870  14.4355   C.2       1 RES1   0.0000
  2725 C73      4.5782  40.7793   0.0018   C.2       1 RES1   0.0000
  2726 C74      4.3392  39.4773   0.0018   C.2       1 RES1   0.0000
  2727 C75      4.3392  40.7793   8.9156   C.2       1 RES1   0.0000
  2728 C76      4.5782  39.4773   8.9156   C.2       1 RES1   0.0000
  2729 C77      0.0018  40.2478   5.1097   C.2       1 RES1   0.0000
  2730 C78      0.0018  40.0088   3.8077   C.2       1 RES1   0.0000
  2731 C79      8.9156  40.0088   5.1097   C.2       1 RES1   0.0000
  2732 C80      8.9156  40.2478   3.8077   C.2       1 RES1   0.0000
  2733 C81      5.1097  35.6714   4.5782   C.2       1 RES1   0.0000
  2734 C82      3.8077  35.6714   4.3392   C.2       1 RES1   0.0000
  2735 C83      5.1097  44.5852   4.3392   C.2       1 RES1   0.0000
  2736 C84      3.8077  44.5852   4.5782   C.2       1 RES1   0.0000
  2737 C85     13.2566  48.3947  17.8330   C.2       1 RES1   0.0000
  2738 C86     13.4956  49.6967  17.8330   C.2       1 RES1   0.0000
  2739 C87     13.4956  48.3947   8.9192   C.2       1 RES1   0.0000
  2740 C88     13.2566  49.6967   8.9192   C.2       1 RES1   0.0000
  2741 C89     17.8330  48.9262  12.7251   C.2       1 RES1   0.0000
  2742 C90     17.8330  49.1652  14.0271   C.2       1 RES1   0.0000
  2743 C91      8.9192  49.1652  12.7251   C.2       1 RES1   0.0000
  2744 C92      8.9192  48.9262  14.0271   C.2       1 RES1   0.0000
  2745 C93     12.7251  53.5026  13.2566   C.2       1 RES1   0.0000
  2746 C94     14.0271  53.5026  13.4956   C.2       1 RES1   0.0000
  2747 C95     12.7251  44.5888  13.4956   C.2       1 RES1   0.0000
  2748 C96     14.0271  44.5888  13.2566   C.2       1 RES1   0.0000
  2749 H25      5.4503  41.1021   0.0018   H         1 RES1   0.0000
  2750 H26      3.4671  39.1545   0.0018   H         1 RES1   0.0000
  2751 H27      3.4671  41.1021   8.9156   H         1 RES1   0.0000
  2752 H28      5.4503  39.1545   8.9156   H         1 RES1   0.0000
  2753 H29      0.0018  41.1199   5.4325   H         1 RES1   0.0000
  2754 H30      0.0018  39.1367   3.4849   H         1 RES1   0.0000
  2755 H31      8.9156  39.1367   5.4325   H         1 RES1   0.0000
  2756 H32      8.9156  41.1199   3.4849   H         1 RES1   0.0000
  2757 H33      5.4325  35.6714   5.4503   H         1 RES1   0.0000
  2758 H34      3.4849  35.6714   3.4671   H         1 RES1   0.0000
  2759 H35      5.4325  44.5852   3.4671   H         1 RES1   0.0000
  2760 H36      3.4849  44.5852   5.4503   H         1 RES1   0.0000
  2761 H37     12.3845  48.0719  17.8330   H         1 RES1   0.0000
  2762 H38     14.3677  50.0195  17.8330   H         1 RES1   0.0000
  2763 H39     14.3677  48.0719   8.9192   H         1 RES1   0.0000
  2764 H40     12.3845  50.0195   8.9192   H         1 RES1   0.0000
  2765 H41     17.8330  48.0541  12.4023   H         1 RES1   0.0000
  2766 H42     17.8330  50.0373  14.3499   H         1 RES1   0.0000
  2767 H43      8.9192  50.0373  12.4023   H         1 RES1   0.0000
  2768 H44      8.9192  48.0541  14.3499   H         1 RES1   0.0000
  2769 H45     12.4023  53.5026  12.3845   H         1 RES1   0.0000
  2770 H46     14.3499  53.5026  14.3677   H         1 RES1   0.0000
  2771 H47     12.4023  44.5888  14.3677   H         1 RES1   0.0000
  2772 H48     14.3499  44.5888  12.3845   H         1 RES1   0.0000
  2773 O97      1.3644  46.2225  16.6809   O.3       1 RES1   0.0000
  2774 O98      7.5530  51.8689  16.6809   O.3       1 RES1   0.0000
  2775 O99      7.5530  46.2225  10.0713   O.3       1 RES1   0.0000
  2776 O100     1.3644  51.8689  10.0713   O.3       1 RES1   0.0000
  2777 O101    16.6809  37.0340  10.5529   O.3       1 RES1   0.0000
  2778 O102    16.6809  43.2226  16.1993   O.3       1 RES1   0.0000
  2779 O103    10.0713  43.2226  10.5529   O.3       1 RES1   0.0000
  2780 O105    10.5529  52.3505   1.3644   O.3       1 RES1   0.0000
  2781 O106    16.1993  52.3505   7.5530   O.3       1 RES1   0.0000
  2782 O107    10.5529  45.7409   7.5530   O.3       1 RES1   0.0000
  2783 O108    16.1993  45.7409   1.3644   O.3       1 RES1   0.0000
  2784 O109    16.4704  42.9515   1.1539   O.3       1 RES1   0.0000
  2785 O110    10.2818  37.3051   1.1539   O.3       1 RES1   0.0000
  2786 O111    10.2818  42.9515   7.7635   O.3       1 RES1   0.0000
  2787 O112    16.4704  37.3051   7.7635   O.3       1 RES1   0.0000
  2788 O113     1.1539  52.1400   7.2819   O.3       1 RES1   0.0000
  2789 O114     1.1539  45.9514   1.6355   O.3       1 RES1   0.0000
  2790 O115     7.7635  45.9514   7.2819   O.3       1 RES1   0.0000
  2791 O116     7.7635  52.1400   1.6355   O.3       1 RES1   0.0000
  2792 O119     7.2819  43.4331  10.2818   O.3       1 RES1   0.0000
  2793 O120     1.6355  43.4331  16.4704   O.3       1 RES1   0.0000
  2794 O121     1.0630  43.5240   1.0630   O.3       1 RES1   0.0000
  2795 O123     7.8544  43.5240   7.8544   O.3       1 RES1   0.0000
  2796 O125    16.7718  45.6500  16.7718   O.3       1 RES1   0.0000
  2797 O126     9.9804  52.4414  16.7718   O.3       1 RES1   0.0000
  2798 O127     9.9804  45.6500   9.9804   O.3       1 RES1   0.0000
  2799 O128    16.7718  52.4414   9.9804   O.3       1 RES1   0.0000
  2800 O129     1.0630  45.8105  16.9502   O.3       1 RES1   0.0000
  2801 O130     7.8544  52.2809  16.9502   O.3       1 RES1   0.0000
  2802 O131     7.8544  45.8105   9.8020   O.3       1 RES1   0.0000
  2803 O132     1.0630  52.2809   9.8020   O.3       1 RES1   0.0000
  2804 O133    16.9502  36.7326  10.1409   O.3       1 RES1   0.0000
  2805 O134    16.9502  43.5240  16.6113   O.3       1 RES1   0.0000
  2806 O135     9.8020  43.5240  10.1409   O.3       1 RES1   0.0000
  2807 O137    10.1409  52.6198   1.0630   O.3       1 RES1   0.0000
  2808 O138    16.6113  52.6198   7.8544   O.3       1 RES1   0.0000
  2809 O139    10.1409  45.4716   7.8544   O.3       1 RES1   0.0000
  2810 O140    16.6113  45.4716   1.0630   O.3       1 RES1   0.0000
  2811 O141    16.7718  43.3635   0.8846   O.3       1 RES1   0.0000
  2812 O142     9.9804  36.8931   0.8846   O.3       1 RES1   0.0000
  2813 O143     9.9804  43.3635   8.0328   O.3       1 RES1   0.0000
  2814 O144    16.7718  36.8931   8.0328   O.3       1 RES1   0.0000
  2815 O145     0.8846  52.4414   7.6939   O.3       1 RES1   0.0000
  2816 O146     0.8846  45.6500   1.2235   O.3       1 RES1   0.0000
  2817 O147     8.0328  45.6500   7.6939   O.3       1 RES1   0.0000
  2818 O148     8.0328  52.4414   1.2235   O.3       1 RES1   0.0000
  2819 O151     7.6939  43.7024   9.9804   O.3       1 RES1   0.0000
  2820 O152     1.2235  43.7024  16.7718   O.3       1 RES1   0.0000
  2821 O153     1.4000  43.1870   1.4000   O.3       1 RES1   0.0000
  2822 O155     7.5174  43.1870   7.5174   O.3       1 RES1   0.0000
  2823 O157    16.4348  45.9870  16.4348   O.3       1 RES1   0.0000
  2824 O158    10.3174  52.1044  16.4348   O.3       1 RES1   0.0000
  2825 O159    10.3174  45.9870  10.3174   O.3       1 RES1   0.0000
  2826 O160    16.4348  52.1044  10.3174   O.3       1 RES1   0.0000
  2827 Zr1      2.4585  44.7855  18.0467   Zr        1 RES1   0.0000
  2828 Zr1     20.2933  44.7855   0.2119   Zr        1 RES1   0.0000
  2829 Zr2      6.4589  53.3059  18.0467   Zr        1 RES1   0.0000
  2830 Zr4     20.2933  53.3059   8.7055   Zr        1 RES1   0.0000
  2831 Zr5      0.2119  55.9629   9.1159   Zr        1 RES1   0.0000
  2832 Zr5     18.0467  38.1281   9.1159   Zr        1 RES1   0.0000
  2833 Zr6      0.2119  42.1285  -0.1985   Zr        1 RES1   0.0000
  2834 Zr6     18.0467  42.1285  -0.1985   Zr        1 RES1   0.0000
  2835 Zr6     18.0467  42.1285  17.6363   Zr        1 RES1   0.0000
  2836 Zr8      8.7055  55.9629  -0.1985   Zr        1 RES1   0.0000
  2837 Zr8      8.7055  55.9629  17.6363   Zr        1 RES1   0.0000
  2838 Zr9      9.1159  53.7163   2.4585   Zr        1 RES1   0.0000
  2839 Zr10    -0.1985  53.7163   6.4589   Zr        1 RES1   0.0000
  2840 Zr10    17.6363  53.7163   6.4589   Zr        1 RES1   0.0000
  2841 Zr12    -0.1985  44.3751   2.4585   Zr        1 RES1   0.0000
  2842 Zr12    -0.1985  44.3751  20.2933   Zr        1 RES1   0.0000
  2843 Zr12    17.6363  44.3751  20.2933   Zr        1 RES1   0.0000
  2844 Zr13    -2.4585  44.3885  17.6229   Zr        1 RES1   0.0000
  2845 Zr13    15.3763  44.3885  -0.2119   Zr        1 RES1   0.0000
  2846 Zr14    11.3759  53.7029  -0.2119   Zr        1 RES1   0.0000
  2847 Zr14    11.3759  53.7029  17.6229   Zr        1 RES1   0.0000
  2848 Zr16    -2.4585  53.7029   9.1293   Zr        1 RES1   0.0000
  2849 Zr16    15.3763  53.7029   9.1293   Zr        1 RES1   0.0000
  2850 Zr17    -0.2119  51.0459   8.7189   Zr        1 RES1   0.0000
  2851 Zr18    -0.2119  47.0455   0.1985   Zr        1 RES1   0.0000
  2852 Zr18    -0.2119  47.0455  18.0333   Zr        1 RES1   0.0000
  2853 Zr18    17.6229  47.0455  18.0333   Zr        1 RES1   0.0000
  2854 Zr20     9.1293  51.0459  18.0333   Zr        1 RES1   0.0000
  2855 Zr21     8.7189  53.2925  -2.4585   Zr        1 RES1   0.0000
  2856 Zr22    18.0333  53.2925  11.3759   Zr        1 RES1   0.0000
  2857 Zr24     0.1985  44.7989  -2.4585   Zr        1 RES1   0.0000
  2858 Zr24    18.0333  44.7989  -2.4585   Zr        1 RES1   0.0000
  2859 Zr24    18.0333  44.7989  15.3763   Zr        1 RES1   0.0000
  2860 O2       5.1899  55.1363   0.1427   O.2       1 RES1   0.0000
  2861 O4       3.7275  55.1363   8.7747   O.2       1 RES1   0.0000
  2862 O6       0.1427  40.8595  19.4667   O.co2     1 RES1   0.0000
  2863 O8       8.7747  39.3971  19.4667   O.co2     1 RES1   0.0000
  2864 O10     19.4667  35.8123   5.1899   O.co2     1 RES1   0.0000
  2865 O12     19.4667  44.4443   3.7275   O.co2     1 RES1   0.0000
  2866 O18     17.6921  48.3145  -1.6319   O.2       1 RES1   0.0000
  2867 O20      9.0601  49.7769  -1.6319   O.2       1 RES1   0.0000
  2868 O22     -1.6319  53.3617  12.6449   O.2       1 RES1   0.0000
  2869 O24     -1.6319  44.7297  14.1073   O.2       1 RES1   0.0000
  2870 O50      5.5359  53.3742   2.2525   O.2       1 RES1   0.0000
  2871 O52      3.3815  53.3742   6.6649   O.2       1 RES1   0.0000
  2872 O54      2.2525  41.2055  17.7046   O.co2     1 RES1   0.0000
  2873 O56      6.6649  39.0511  17.7046   O.co2     1 RES1   0.0000
  2874 O58     17.7046  37.9221   5.5359   O.co2     1 RES1   0.0000
  2875 O60     17.7046  42.3345   3.3815   O.co2     1 RES1   0.0000
  2876 O66     15.5823  47.9685   0.1302   O.2       1 RES1   0.0000
  2877 O68     11.1699  50.1229   0.1302   O.2       1 RES1   0.0000
  2878 O70      0.1302  51.2519  12.2989   O.2       1 RES1   0.0000
  2879 O72      0.1302  46.8395  14.4533   O.2       1 RES1   0.0000
  2880 O73      3.7239  45.0133  -1.6158   O.2       1 RES1   0.0000
  2881 O74      5.1935  53.0781  -1.6158   O.2       1 RES1   0.0000
  2882 O77     -1.6158  39.3935   9.3437   O.2       1 RES1   0.0000
  2883 O78     -1.6158  40.8631  17.4085   O.2       1 RES1   0.0000
  2884 O85     14.1109  44.1607  19.4506   O.co2     1 RES1   0.0000
  2885 O86     12.6413  36.0959  19.4506   O.co2     1 RES1   0.0000
  2886 O89     19.4506  49.7805   8.4911   O.co2     1 RES1   0.0000
  2887 O90     19.4506  48.3109   0.4263   O.co2     1 RES1   0.0000
  2888 O93      8.4911  55.1202  14.1109   O.2       1 RES1   0.0000
  2889 O94      0.4263  55.1202  12.6413   O.2       1 RES1   0.0000
  2890 O97      1.3644  46.2225  -1.1539   O.3       1 RES1   0.0000
  2891 O97     19.1992  46.2225  -1.1539   O.3       1 RES1   0.0000
  2892 O98      7.5530  51.8689  -1.1539   O.3       1 RES1   0.0000
  2893 O100    19.1992  51.8689  10.0713   O.3       1 RES1   0.0000
  2894 O101    -1.1539  54.8688  10.5529   O.3       1 RES1   0.0000
  2895 O102    -1.1539  43.2226  16.1993   O.3       1 RES1   0.0000
  2896 O104    10.0713  54.8688  16.1993   O.3       1 RES1   0.0000
  2897 O108    16.1993  45.7409  19.1992   O.3       1 RES1   0.0000
  2898 O109    -1.3644  42.9515  18.9887   O.3       1 RES1   0.0000
  2899 O109    16.4704  42.9515  18.9887   O.3       1 RES1   0.0000
  2900 O110    10.2818  37.3051  18.9887   O.3       1 RES1   0.0000
  2901 O112    -1.3644  37.3051   7.7635   O.3       1 RES1   0.0000
  2902 O113    18.9887  52.1400   7.2819   O.3       1 RES1   0.0000
  2903 O114    18.9887  45.9514   1.6355   O.3       1 RES1   0.0000
  2904 O117     7.2819  54.6583  -1.3644   O.3       1 RES1   0.0000
  2905 O117     7.2819  54.6583  16.4704   O.3       1 RES1   0.0000
  2906 O118     1.6355  54.6583  10.2818   O.3       1 RES1   0.0000
  2907 O120     1.6355  43.4331  -1.3644   O.3       1 RES1   0.0000
  2908 O121     1.0630  43.5240  18.8978   O.3       1 RES1   0.0000
  2909 O121    18.8978  43.5240   1.0630   O.3       1 RES1   0.0000
  2910 O122     7.8544  54.5674   1.0630   O.3       1 RES1   0.0000
  2911 O124     1.0630  54.5674   7.8544   O.3       1 RES1   0.0000
  2912 O124    18.8978  36.7326   7.8544   O.3       1 RES1   0.0000
  2913 O125    -1.0630  45.6500  16.7718   O.3       1 RES1   0.0000
  2914 O125    16.7718  45.6500  -1.0630   O.3       1 RES1   0.0000
  2915 O126     9.9804  52.4414  -1.0630   O.3       1 RES1   0.0000
  2916 O128    -1.0630  52.4414   9.9804   O.3       1 RES1   0.0000
  2917 O129     1.0630  45.8105  -0.8846   O.3       1 RES1   0.0000
  2918 O129    18.8978  45.8105  -0.8846   O.3       1 RES1   0.0000
  2919 O130     7.8544  52.2809  -0.8846   O.3       1 RES1   0.0000
  2920 O132    18.8978  52.2809   9.8020   O.3       1 RES1   0.0000
  2921 O133    -0.8846  54.5674  10.1409   O.3       1 RES1   0.0000
  2922 O134    -0.8846  43.5240  16.6113   O.3       1 RES1   0.0000
  2923 O136     9.8020  54.5674  16.6113   O.3       1 RES1   0.0000
  2924 O140    16.6113  45.4716  18.8978   O.3       1 RES1   0.0000
  2925 O141    -1.0630  43.3635  18.7194   O.3       1 RES1   0.0000
  2926 O141    16.7718  43.3635  18.7194   O.3       1 RES1   0.0000
  2927 O142     9.9804  36.8931  18.7194   O.3       1 RES1   0.0000
  2928 O144    -1.0630  36.8931   8.0328   O.3       1 RES1   0.0000
  2929 O145    18.7194  52.4414   7.6939   O.3       1 RES1   0.0000
  2930 O146    18.7194  45.6500   1.2235   O.3       1 RES1   0.0000
  2931 O149     7.6939  54.3890  -1.0630   O.3       1 RES1   0.0000
  2932 O149     7.6939  54.3890  16.7718   O.3       1 RES1   0.0000
  2933 O150     1.2235  54.3890   9.9804   O.3       1 RES1   0.0000
  2934 O152     1.2235  43.7024  -1.0630   O.3       1 RES1   0.0000
  2935 O153     1.4000  43.1870  19.2348   O.3       1 RES1   0.0000
  2936 O153    19.2348  43.1870   1.4000   O.3       1 RES1   0.0000
  2937 O154     7.5174  54.9044   1.4000   O.3       1 RES1   0.0000
  2938 O156     1.4000  54.9044   7.5174   O.3       1 RES1   0.0000
  2939 O156    19.2348  37.0696   7.5174   O.3       1 RES1   0.0000
  2940 O157    -1.4000  45.9870  16.4348   O.3       1 RES1   0.0000
  2941 O157    16.4348  45.9870  -1.4000   O.3       1 RES1   0.0000
  2942 O158    10.3174  52.1044  -1.4000   O.3       1 RES1   0.0000
  2943 O160    -1.4000  52.1044  10.3174   O.3       1 RES1   0.0000
  2944 Zr3      6.4589  44.7855  26.5403   Zr        1 RES1   0.0000
  2945 Zr4      2.4585  53.3059  26.5403   Zr        1 RES1   0.0000
  2946 Zr6      0.2119  42.1285  35.4711   Zr        1 RES1   0.0000
  2947 Zr7      8.7055  42.1285  26.9507   Zr        1 RES1   0.0000
  2948 Zr11     9.1159  44.3751  24.2937   Zr        1 RES1   0.0000
  2949 Zr13    15.3763  44.3885  35.4577   Zr        1 RES1   0.0000
  2950 Zr15    11.3759  44.3885  26.9641   Zr        1 RES1   0.0000
  2951 Zr17    17.6229  51.0459  26.5537   Zr        1 RES1   0.0000
  2952 Zr19     9.1293  47.0455  26.5537   Zr        1 RES1   0.0000
  2953 Zr21     8.7189  53.2925  33.2111   Zr        1 RES1   0.0000
  2954 Zr22     0.1985  53.2925  29.2107   Zr        1 RES1   0.0000
  2955 Zr23     8.7189  44.7989  29.2107   Zr        1 RES1   0.0000
  2956 Zr24     0.1985  44.7989  33.2111   Zr        1 RES1   0.0000
  2957 O1       3.7275  42.9551  17.9775   O.co2     1 RES1   0.0000
  2958 O3       5.1899  42.9551  26.6095   O.co2     1 RES1   0.0000
  2959 O5       0.1427  39.3971  25.1203   O.co2     1 RES1   0.0000
  2960 O7       8.7747  40.8595  25.1203   O.co2     1 RES1   0.0000
  2961 O9       7.2855  35.8123  21.5623   O.co2     1 RES1   0.0000
  2962 O10      1.6319  35.8123  23.0247   O.co2     1 RES1   0.0000
  2963 O11      7.2855  44.4443  23.0247   O.co2     1 RES1   0.0000
  2964 O12      1.6319  44.4443  21.5623   O.co2     1 RES1   0.0000
  2965 O13     14.1073  46.2189  35.5269   O.co2     1 RES1   0.0000
  2966 O14     12.6449  51.8725  35.5269   O.co2     1 RES1   0.0000
  2967 O15     12.6449  46.2189  26.8949   O.co2     1 RES1   0.0000
  2968 O16     14.1073  51.8725  26.8949   O.co2     1 RES1   0.0000
  2969 O17     17.6921  49.7769  28.3841   O.co2     1 RES1   0.0000
  2970 O18     17.6921  48.3145  34.0377   O.co2     1 RES1   0.0000
  2971 O19      9.0601  48.3145  28.3841   O.co2     1 RES1   0.0000
  2972 O20      9.0601  49.7769  34.0377   O.co2     1 RES1   0.0000
  2973 O21     10.5493  53.3617  31.9421   O.co2     1 RES1   0.0000
  2974 O22     16.2029  53.3617  30.4797   O.co2     1 RES1   0.0000
  2975 O23     10.5493  44.7297  30.4797   O.co2     1 RES1   0.0000
  2976 O24     16.2029  44.7297  31.9421   O.co2     1 RES1   0.0000
  2977 O25      3.3957  46.8092  18.2735   O.co2     1 RES1   0.0000
  2978 O26      5.5217  51.2822  18.2735   O.co2     1 RES1   0.0000
  2979 O27      5.5217  46.8092  26.3135   O.co2     1 RES1   0.0000
  2980 O28      3.3957  51.2822  26.3135   O.co2     1 RES1   0.0000
  2981 O29      0.4387  39.0653  28.9744   O.co2     1 RES1   0.0000
  2982 O30      0.4387  41.1913  33.4474   O.co2     1 RES1   0.0000
  2983 O31      8.4787  41.1913  28.9744   O.co2     1 RES1   0.0000
  2984 O32      8.4787  39.0653  33.4474   O.co2     1 RES1   0.0000
  2985 O33     11.1396  36.1083  21.2305   O.co2     1 RES1   0.0000
  2986 O34     15.6126  36.1083  23.3565   O.co2     1 RES1   0.0000
  2987 O35     11.1396  44.1483  23.3565   O.co2     1 RES1   0.0000
  2988 O36     15.6126  44.1483  21.2305   O.co2     1 RES1   0.0000
  2989 O37     14.4391  42.3648  35.2309   O.co2     1 RES1   0.0000
  2990 O38     12.3131  37.8918  35.2309   O.co2     1 RES1   0.0000
  2991 O39     12.3131  42.3648  27.1909   O.co2     1 RES1   0.0000
  2992 O40     14.4391  37.8918  27.1909   O.co2     1 RES1   0.0000
  2993 O41     17.3961  50.1087  24.5300   O.co2     1 RES1   0.0000
  2994 O42     17.3961  47.9827  20.0570   O.co2     1 RES1   0.0000
  2995 O43      9.3561  47.9827  24.5300   O.co2     1 RES1   0.0000
  2996 O44      9.3561  50.1087  20.0570   O.co2     1 RES1   0.0000
  2997 O45      6.6952  53.0657  32.2739   O.co2     1 RES1   0.0000
  2998 O46      2.2222  53.0657  30.1479   O.co2     1 RES1   0.0000
  2999 O47      6.6952  45.0257  30.1479   O.co2     1 RES1   0.0000
  3000 O48      2.2222  45.0257  32.2739   O.co2     1 RES1   0.0000
  3001 O49      3.3815  44.7172  20.0873   O.co2     1 RES1   0.0000
  3002 O51      5.5359  44.7172  24.4997   O.co2     1 RES1   0.0000
  3003 O53      2.2525  39.0511  26.8824   O.co2     1 RES1   0.0000
  3004 O55      6.6649  41.2055  26.8824   O.co2     1 RES1   0.0000
  3005 O57      9.0476  37.9221  21.2163   O.co2     1 RES1   0.0000
  3006 O58     -0.1302  37.9221  23.3707   O.co2     1 RES1   0.0000
  3007 O59      9.0476  42.3345  23.3707   O.co2     1 RES1   0.0000
  3008 O60     -0.1302  42.3345  21.2163   O.co2     1 RES1   0.0000
  3009 O61     14.4533  44.4568  33.4171   O.co2     1 RES1   0.0000
  3010 O62     12.2989  53.6346  33.4171   O.co2     1 RES1   0.0000
  3011 O63     12.2989  44.4568  29.0047   O.co2     1 RES1   0.0000
  3012 O64     14.4533  53.6346  29.0047   O.co2     1 RES1   0.0000
  3013 O65     15.5823  50.1229  26.6220   O.co2     1 RES1   0.0000
  3014 O66     15.5823  47.9685  35.7998   O.co2     1 RES1   0.0000
  3015 O67     11.1699  47.9685  26.6220   O.co2     1 RES1   0.0000
  3016 O68     11.1699  50.1229  35.7998   O.co2     1 RES1   0.0000
  3017 O69      8.7872  51.2519  32.2881   O.co2     1 RES1   0.0000
  3018 O70     17.9650  51.2519  30.1337   O.co2     1 RES1   0.0000
  3019 O71      8.7872  46.8395  30.1337   O.co2     1 RES1   0.0000
  3020 O72     17.9650  46.8395  32.2881   O.co2     1 RES1   0.0000
  3021 O73      3.7239  45.0133  34.0538   O.co2     1 RES1   0.0000
  3022 O74      5.1935  53.0781  34.0538   O.co2     1 RES1   0.0000
  3023 O75      5.1935  45.0133  28.3680   O.co2     1 RES1   0.0000
  3024 O76      3.7239  53.0781  28.3680   O.co2     1 RES1   0.0000
  3025 O77     16.2190  39.3935  27.1785   O.co2     1 RES1   0.0000
  3026 O78     16.2190  40.8631  35.2433   O.co2     1 RES1   0.0000
  3027 O79     10.5332  40.8631  27.1785   O.co2     1 RES1   0.0000
  3028 O80     10.5332  39.3935  35.2433   O.co2     1 RES1   0.0000
  3029 O81      9.3437  51.8886  21.5587   O.co2     1 RES1   0.0000
  3030 O82     17.4085  51.8886  23.0283   O.co2     1 RES1   0.0000
  3031 O83      9.3437  46.2028  23.0283   O.co2     1 RES1   0.0000
  3032 O84     17.4085  46.2028  21.5587   O.co2     1 RES1   0.0000
  3033 O87     12.6413  44.1607  25.1364   O.co2     1 RES1   0.0000
  3034 O88     14.1109  36.0959  25.1364   O.co2     1 RES1   0.0000
  3035 O89      1.6158  49.7805  26.3259   O.co2     1 RES1   0.0000
  3036 O90      1.6158  48.3109  18.2611   O.co2     1 RES1   0.0000
  3037 O91      7.3016  48.3109  26.3259   O.co2     1 RES1   0.0000
  3038 O92      7.3016  49.7805  18.2611   O.co2     1 RES1   0.0000
  3039 O95      8.4911  42.9712  30.4761   O.co2     1 RES1   0.0000
  3040 O96      0.4263  42.9712  31.9457   O.co2     1 RES1   0.0000
  3041 C1       2.8607  47.9596  18.2628   C.2       1 RES1   0.0000
  3042 C2       6.0567  50.1318  18.2628   C.2       1 RES1   0.0000
  3043 C3       6.0567  47.9596  26.3242   C.2       1 RES1   0.0000
  3044 C4       2.8607  50.1318  26.3242   C.2       1 RES1   0.0000
  3045 C5       0.4280  38.5303  30.1248   C.2       1 RES1   0.0000
  3046 C6       0.4280  41.7263  32.2970   C.2       1 RES1   0.0000
  3047 C7       8.4894  41.7263  30.1248   C.2       1 RES1   0.0000
  3048 C8       8.4894  38.5303  32.2970   C.2       1 RES1   0.0000
  3049 C9      12.2900  36.0976  20.6955   C.2       1 RES1   0.0000
  3050 C10     14.4622  36.0976  23.8915   C.2       1 RES1   0.0000
  3051 C11     12.2900  44.1590  23.8915   C.2       1 RES1   0.0000
  3052 C12     14.4622  44.1590  20.6955   C.2       1 RES1   0.0000
  3053 C13     14.9741  41.2144  35.2416   C.2       1 RES1   0.0000
  3054 C14     11.7781  39.0422  35.2416   C.2       1 RES1   0.0000
  3055 C15     11.7781  41.2144  27.1802   C.2       1 RES1   0.0000
  3056 C16     14.9741  39.0422  27.1802   C.2       1 RES1   0.0000
  3057 C17     17.4068  50.6437  23.3796   C.2       1 RES1   0.0000
  3058 C18     17.4068  47.4477  21.2074   C.2       1 RES1   0.0000
  3059 C19      9.3454  47.4477  23.3796   C.2       1 RES1   0.0000
  3060 C20      9.3454  50.6437  21.2074   C.2       1 RES1   0.0000
  3061 C21      5.5448  53.0764  32.8089   C.2       1 RES1   0.0000
  3062 C22      3.3726  53.0764  29.6129   C.2       1 RES1   0.0000
  3063 C23      5.5448  45.0150  29.6129   C.2       1 RES1   0.0000
  3064 C24      3.3726  45.0150  32.8089   C.2       1 RES1   0.0000
  3065 C25      3.8202  49.1438  18.2682   C.2       1 RES1   0.0000
  3066 C26      5.0972  48.9476  18.2682   C.2       1 RES1   0.0000
  3067 C27      5.0972  49.1438  26.3188   C.2       1 RES1   0.0000
  3068 C28      3.8202  48.9476  26.3188   C.2       1 RES1   0.0000
  3069 C29      0.4334  39.4898  31.3090   C.2       1 RES1   0.0000
  3070 C30      0.4334  40.7668  31.1128   C.2       1 RES1   0.0000
  3071 C31      8.4840  40.7668  31.3090   C.2       1 RES1   0.0000
  3072 C32      8.4840  39.4898  31.1128   C.2       1 RES1   0.0000
  3073 C33     13.4742  36.1030  21.6550   C.2       1 RES1   0.0000
  3074 C34     13.2780  36.1030  22.9320   C.2       1 RES1   0.0000
  3075 C35     13.4742  44.1536  22.9320   C.2       1 RES1   0.0000
  3076 C36     13.2780  44.1536  21.6550   C.2       1 RES1   0.0000
  3077 C37     14.0146  40.0302  35.2362   C.2       1 RES1   0.0000
  3078 C38     12.7376  40.2264  35.2362   C.2       1 RES1   0.0000
  3079 C39     12.7376  40.0302  27.1856   C.2       1 RES1   0.0000
  3080 C40     14.0146  40.2264  27.1856   C.2       1 RES1   0.0000
  3081 C41     17.4014  49.6842  22.1954   C.2       1 RES1   0.0000
  3082 C42     17.4014  48.4072  22.3916   C.2       1 RES1   0.0000
  3083 C43      9.3508  48.4072  22.1954   C.2       1 RES1   0.0000
  3084 C44      9.3508  49.6842  22.3916   C.2       1 RES1   0.0000
  3085 C45      4.3606  53.0710  31.8494   C.2       1 RES1   0.0000
  3086 C46      4.5568  53.0710  30.5724   C.2       1 RES1   0.0000
  3087 C47      4.3606  45.0204  30.5724   C.2       1 RES1   0.0000
  3088 C48      4.5568  45.0204  31.8494   C.2       1 RES1   0.0000
  3089 H1       3.4867  50.0123  18.2700   H         1 RES1   0.0000
  3090 H2       5.4307  48.0791  18.2700   H         1 RES1   0.0000
  3091 H3       5.4307  50.0123  26.3170   H         1 RES1   0.0000
  3092 H4       3.4867  48.0791  26.3170   H         1 RES1   0.0000
  3093 H5       0.4352  39.1563  32.1775   H         1 RES1   0.0000
  3094 H6       0.4352  41.1003  30.2443   H         1 RES1   0.0000
  3095 H7       8.4822  41.1003  32.1775   H         1 RES1   0.0000
  3096 H8       8.4822  39.1563  30.2443   H         1 RES1   0.0000
  3097 H9      14.3427  36.1048  21.3215   H         1 RES1   0.0000
  3098 H10     12.4095  36.1048  23.2655   H         1 RES1   0.0000
  3099 H11     14.3427  44.1518  23.2655   H         1 RES1   0.0000
  3100 H12     12.4095  44.1518  21.3215   H         1 RES1   0.0000
  3101 H13     14.3481  39.1617  35.2344   H         1 RES1   0.0000
  3102 H14     12.4041  41.0949  35.2344   H         1 RES1   0.0000
  3103 H15     12.4041  39.1617  27.1874   H         1 RES1   0.0000
  3104 H16     14.3481  41.0949  27.1874   H         1 RES1   0.0000
  3105 H17     17.3996  50.0177  21.3269   H         1 RES1   0.0000
  3106 H18     17.3996  48.0737  23.2601   H         1 RES1   0.0000
  3107 H19      9.3526  48.0737  21.3269   H         1 RES1   0.0000
  3108 H20      9.3526  50.0177  23.2601   H         1 RES1   0.0000
  3109 H21      3.4921  53.0692  32.1829   H         1 RES1   0.0000
  3110 H22      5.4253  53.0692  30.2389   H         1 RES1   0.0000
  3111 H23      3.4921  45.0222  30.2389   H         1 RES1   0.0000
  3112 H24      5.4253  45.0222  32.1829   H         1 RES1   0.0000
  3113 C49      3.3993  41.7299  17.8348   C.2       1 RES1   0.0000
  3114 C50      5.5181  38.5267  17.8348   C.2       1 RES1   0.0000
  3115 C51      5.5181  41.7299  26.7522   C.2       1 RES1   0.0000
  3116 C52      3.3993  38.5267  26.7522   C.2       1 RES1   0.0000
  3117 C53      0.0000  39.0689  23.8951   C.2       1 RES1   0.0000
  3118 C54      0.0000  41.1877  20.6919   C.2       1 RES1   0.0000
  3119 C55      8.9174  41.1877  23.8951   C.2       1 RES1   0.0000
  3120 C56      8.9174  39.0689  20.6919   C.2       1 RES1   0.0000
  3121 C57      6.0603  35.6696  21.2341   C.2       1 RES1   0.0000
  3122 C58      2.8571  35.6696  23.3529   C.2       1 RES1   0.0000
  3123 C59      6.0603  44.5870  23.3529   C.2       1 RES1   0.0000
  3124 C60      2.8571  44.5870  21.2341   C.2       1 RES1   0.0000
  3125 C61     14.4355  47.4441  35.6696   C.2       1 RES1   0.0000
  3126 C62     12.3167  50.6473  35.6696   C.2       1 RES1   0.0000
  3127 C63     12.3167  47.4441  26.7522   C.2       1 RES1   0.0000
  3128 C64     14.4355  50.6473  26.7522   C.2       1 RES1   0.0000
  3129 C65     17.8348  50.1051  29.6093   C.2       1 RES1   0.0000
  3130 C66     17.8348  47.9863  32.8125   C.2       1 RES1   0.0000
  3131 C67      8.9174  47.9863  29.6093   C.2       1 RES1   0.0000
  3132 C68      8.9174  50.1051  32.8125   C.2       1 RES1   0.0000
  3133 C69     11.7745  53.5044  32.2703   C.2       1 RES1   0.0000
  3134 C70     14.9777  53.5044  30.1515   C.2       1 RES1   0.0000
  3135 C71     11.7745  44.5870  30.1515   C.2       1 RES1   0.0000
  3136 C72     14.9777  44.5870  32.2703   C.2       1 RES1   0.0000
  3137 C73      4.5782  40.7793  17.8366   C.2       1 RES1   0.0000
  3138 C74      4.3392  39.4773  17.8366   C.2       1 RES1   0.0000
  3139 C75      4.3392  40.7793  26.7504   C.2       1 RES1   0.0000
  3140 C76      4.5782  39.4773  26.7504   C.2       1 RES1   0.0000
  3141 C77      0.0018  40.2478  22.9445   C.2       1 RES1   0.0000
  3142 C78      0.0018  40.0088  21.6425   C.2       1 RES1   0.0000
  3143 C79      8.9156  40.0088  22.9445   C.2       1 RES1   0.0000
  3144 C80      8.9156  40.2478  21.6425   C.2       1 RES1   0.0000
  3145 C81      5.1097  35.6714  22.4130   C.2       1 RES1   0.0000
  3146 C82      3.8077  35.6714  22.1740   C.2       1 RES1   0.0000
  3147 C83      5.1097  44.5852  22.1740   C.2       1 RES1   0.0000
  3148 C84      3.8077  44.5852  22.4130   C.2       1 RES1   0.0000
  3149 C85     13.2566  48.3947  35.6678   C.2       1 RES1   0.0000
  3150 C86     13.4956  49.6967  35.6678   C.2       1 RES1   0.0000
  3151 C87     13.4956  48.3947  26.7540   C.2       1 RES1   0.0000
  3152 C88     13.2566  49.6967  26.7540   C.2       1 RES1   0.0000
  3153 C89     17.8330  48.9262  30.5599   C.2       1 RES1   0.0000
  3154 C90     17.8330  49.1652  31.8619   C.2       1 RES1   0.0000
  3155 C91      8.9192  49.1652  30.5599   C.2       1 RES1   0.0000
  3156 C92      8.9192  48.9262  31.8619   C.2       1 RES1   0.0000
  3157 C93     12.7251  53.5026  31.0914   C.2       1 RES1   0.0000
  3158 C94     14.0271  53.5026  31.3304   C.2       1 RES1   0.0000
  3159 C95     12.7251  44.5888  31.3304   C.2       1 RES1   0.0000
  3160 C96     14.0271  44.5888  31.0914   C.2       1 RES1   0.0000
  3161 H25      5.4503  41.1021  17.8366   H         1 RES1   0.0000
  3162 H26      3.4671  39.1545  17.8366   H         1 RES1   0.0000
  3163 H27      3.4671  41.1021  26.7504   H         1 RES1   0.0000
  3164 H28      5.4503  39.1545  26.7504   H         1 RES1   0.0000
  3165 H29      0.0018  41.1199  23.2673   H         1 RES1   0.0000
  3166 H30      0.0018  39.1367  21.3197   H         1 RES1   0.0000
  3167 H31      8.9156  39.1367  23.2673   H         1 RES1   0.0000
  3168 H32      8.9156  41.1199  21.3197   H         1 RES1   0.0000
  3169 H33      5.4325  35.6714  23.2851   H         1 RES1   0.0000
  3170 H34      3.4849  35.6714  21.3019   H         1 RES1   0.0000
  3171 H35      5.4325  44.5852  21.3019   H         1 RES1   0.0000
  3172 H36      3.4849  44.5852  23.2851   H         1 RES1   0.0000
  3173 H37     12.3845  48.0719  35.6678   H         1 RES1   0.0000
  3174 H38     14.3677  50.0195  35.6678   H         1 RES1   0.0000
  3175 H39     14.3677  48.0719  26.7540   H         1 RES1   0.0000
  3176 H40     12.3845  50.0195  26.7540   H         1 RES1   0.0000
  3177 H41     17.8330  48.0541  30.2371   H         1 RES1   0.0000
  3178 H42     17.8330  50.0373  32.1847   H         1 RES1   0.0000
  3179 H43      8.9192  50.0373  30.2371   H         1 RES1   0.0000
  3180 H44      8.9192  48.0541  32.1847   H         1 RES1   0.0000
  3181 H45     12.4023  53.5026  30.2193   H         1 RES1   0.0000
  3182 H46     14.3499  53.5026  32.2025   H         1 RES1   0.0000
  3183 H47     12.4023  44.5888  32.2025   H         1 RES1   0.0000
  3184 H48     14.3499  44.5888  30.2193   H         1 RES1   0.0000
  3185 O97      1.3644  46.2225  34.5157   O.3       1 RES1   0.0000
  3186 O98      7.5530  51.8689  34.5157   O.3       1 RES1   0.0000
  3187 O99      7.5530  46.2225  27.9061   O.3       1 RES1   0.0000
  3188 O100     1.3644  51.8689  27.9061   O.3       1 RES1   0.0000
  3189 O101    16.6809  37.0340  28.3877   O.3       1 RES1   0.0000
  3190 O102    16.6809  43.2226  34.0341   O.3       1 RES1   0.0000
  3191 O103    10.0713  43.2226  28.3877   O.3       1 RES1   0.0000
  3192 O105    10.5529  52.3505  19.1992   O.3       1 RES1   0.0000
  3193 O106    16.1993  52.3505  25.3878   O.3       1 RES1   0.0000
  3194 O107    10.5529  45.7409  25.3878   O.3       1 RES1   0.0000
  3195 O111    10.2818  42.9515  25.5983   O.3       1 RES1   0.0000
  3196 O112    16.4704  37.3051  25.5983   O.3       1 RES1   0.0000
  3197 O113     1.1539  52.1400  25.1167   O.3       1 RES1   0.0000
  3198 O114     1.1539  45.9514  19.4703   O.3       1 RES1   0.0000
  3199 O115     7.7635  45.9514  25.1167   O.3       1 RES1   0.0000
  3200 O116     7.7635  52.1400  19.4703   O.3       1 RES1   0.0000
  3201 O119     7.2819  43.4331  28.1166   O.3       1 RES1   0.0000
  3202 O120     1.6355  43.4331  34.3052   O.3       1 RES1   0.0000
  3203 O123     7.8544  43.5240  25.6892   O.3       1 RES1   0.0000
  3204 O125    16.7718  45.6500  34.6066   O.3       1 RES1   0.0000
  3205 O126     9.9804  52.4414  34.6066   O.3       1 RES1   0.0000
  3206 O127     9.9804  45.6500  27.8152   O.3       1 RES1   0.0000
  3207 O128    16.7718  52.4414  27.8152   O.3       1 RES1   0.0000
  3208 O129     1.0630  45.8105  34.7850   O.3       1 RES1   0.0000
  3209 O130     7.8544  52.2809  34.7850   O.3       1 RES1   0.0000
  3210 O131     7.8544  45.8105  27.6368   O.3       1 RES1   0.0000
  3211 O132     1.0630  52.2809  27.6368   O.3       1 RES1   0.0000
  3212 O133    16.9502  36.7326  27.9757   O.3       1 RES1   0.0000
  3213 O134    16.9502  43.5240  34.4461   O.3       1 RES1   0.0000
  3214 O135     9.8020  43.5240  27.9757   O.3       1 RES1   0.0000
  3215 O137    10.1409  52.6198  18.8978   O.3       1 RES1   0.0000
  3216 O138    16.6113  52.6198  25.6892   O.3       1 RES1   0.0000
  3217 O139    10.1409  45.4716  25.6892   O.3       1 RES1   0.0000
  3218 O143     9.9804  43.3635  25.8676   O.3       1 RES1   0.0000
  3219 O144    16.7718  36.8931  25.8676   O.3       1 RES1   0.0000
  3220 O145     0.8846  52.4414  25.5287   O.3       1 RES1   0.0000
  3221 O146     0.8846  45.6500  19.0583   O.3       1 RES1   0.0000
  3222 O147     8.0328  45.6500  25.5287   O.3       1 RES1   0.0000
  3223 O148     8.0328  52.4414  19.0583   O.3       1 RES1   0.0000
  3224 O151     7.6939  43.7024  27.8152   O.3       1 RES1   0.0000
  3225 O152     1.2235  43.7024  34.6066   O.3       1 RES1   0.0000
  3226 O155     7.5174  43.1870  25.3522   O.3       1 RES1   0.0000
  3227 O157    16.4348  45.9870  34.2696   O.3       1 RES1   0.0000
  3228 O158    10.3174  52.1044  34.2696   O.3       1 RES1   0.0000
  3229 O159    10.3174  45.9870  28.1522   O.3       1 RES1   0.0000
  3230 O160    16.4348  52.1044  28.1522   O.3       1 RES1   0.0000
  3231 Zr1      2.4585  44.7855  35.8815   Zr        1 RES1   0.0000
  3232 Zr1     20.2933  44.7855  18.0467   Zr        1 RES1   0.0000
  3233 Zr2      6.4589  53.3059  35.8815   Zr        1 RES1   0.0000
  3234 Zr4     20.2933  53.3059  26.5403   Zr        1 RES1   0.0000
  3235 Zr5      0.2119  55.9629  26.9507   Zr        1 RES1   0.0000
  3236 Zr5     18.0467  38.1281  26.9507   Zr        1 RES1   0.0000
  3237 Zr6     18.0467  42.1285  35.4711   Zr        1 RES1   0.0000
  3238 Zr8      8.7055  55.9629  35.4711   Zr        1 RES1   0.0000
  3239 Zr9      9.1159  53.7163  20.2933   Zr        1 RES1   0.0000
  3240 Zr10    -0.1985  53.7163  24.2937   Zr        1 RES1   0.0000
  3241 Zr10    17.6363  53.7163  24.2937   Zr        1 RES1   0.0000
  3242 Zr12    -0.1985  44.3751  38.1281   Zr        1 RES1   0.0000
  3243 Zr12    17.6363  44.3751  38.1281   Zr        1 RES1   0.0000
  3244 Zr13    -2.4585  44.3885  35.4577   Zr        1 RES1   0.0000
  3245 Zr14    11.3759  53.7029  35.4577   Zr        1 RES1   0.0000
  3246 Zr16    -2.4585  53.7029  26.9641   Zr        1 RES1   0.0000
  3247 Zr16    15.3763  53.7029  26.9641   Zr        1 RES1   0.0000
  3248 Zr17    -0.2119  51.0459  26.5537   Zr        1 RES1   0.0000
  3249 Zr18    -0.2119  47.0455  35.8681   Zr        1 RES1   0.0000
  3250 Zr18    17.6229  47.0455  35.8681   Zr        1 RES1   0.0000
  3251 Zr20     9.1293  51.0459  35.8681   Zr        1 RES1   0.0000
  3252 Zr22    18.0333  53.2925  29.2107   Zr        1 RES1   0.0000
  3253 Zr24    18.0333  44.7989  33.2111   Zr        1 RES1   0.0000
  3254 O2       5.1899  55.1363  17.9775   O.2       1 RES1   0.0000
  3255 O4       3.7275  55.1363  26.6095   O.2       1 RES1   0.0000
  3256 O6       0.1427  40.8595  37.3015   O.co2     1 RES1   0.0000
  3257 O8       8.7747  39.3971  37.3015   O.co2     1 RES1   0.0000
  3258 O10     19.4667  35.8123  23.0247   O.co2     1 RES1   0.0000
  3259 O12     19.4667  44.4443  21.5623   O.co2     1 RES1   0.0000
  3260 O22     -1.6319  53.3617  30.4797   O.2       1 RES1   0.0000
  3261 O24     -1.6319  44.7297  31.9421   O.2       1 RES1   0.0000
  3262 O50      5.5359  53.3742  20.0873   O.2       1 RES1   0.0000
  3263 O52      3.3815  53.3742  24.4997   O.2       1 RES1   0.0000
  3264 O54      2.2525  41.2055  35.5394   O.co2     1 RES1   0.0000
  3265 O56      6.6649  39.0511  35.5394   O.co2     1 RES1   0.0000
  3266 O58     17.7046  37.9221  23.3707   O.co2     1 RES1   0.0000
  3267 O60     17.7046  42.3345  21.2163   O.co2     1 RES1   0.0000
  3268 O70      0.1302  51.2519  30.1337   O.2       1 RES1   0.0000
  3269 O72      0.1302  46.8395  32.2881   O.2       1 RES1   0.0000
  3270 O77     -1.6158  39.3935  27.1785   O.2       1 RES1   0.0000
  3271 O78     -1.6158  40.8631  35.2433   O.2       1 RES1   0.0000
  3272 O85     14.1109  44.1607  37.2854   O.co2     1 RES1   0.0000
  3273 O86     12.6413  36.0959  37.2854   O.co2     1 RES1   0.0000
  3274 O89     19.4506  49.7805  26.3259   O.co2     1 RES1   0.0000
  3275 O90     19.4506  48.3109  18.2611   O.co2     1 RES1   0.0000
  3276 O93      8.4911  55.1202  31.9457   O.2       1 RES1   0.0000
  3277 O94      0.4263  55.1202  30.4761   O.2       1 RES1   0.0000
  3278 O97     19.1992  46.2225  16.6809   O.3       1 RES1   0.0000
  3279 O100    19.1992  51.8689  27.9061   O.3       1 RES1   0.0000
  3280 O101    -1.1539  54.8688  28.3877   O.3       1 RES1   0.0000
  3281 O102    -1.1539  43.2226  34.0341   O.3       1 RES1   0.0000
  3282 O104    10.0713  54.8688  34.0341   O.3       1 RES1   0.0000
  3283 O108    16.1993  45.7409  37.0340   O.3       1 RES1   0.0000
  3284 O109    -1.3644  42.9515  36.8235   O.3       1 RES1   0.0000
  3285 O109    16.4704  42.9515  36.8235   O.3       1 RES1   0.0000
  3286 O110    10.2818  37.3051  36.8235   O.3       1 RES1   0.0000
  3287 O112    -1.3644  37.3051  25.5983   O.3       1 RES1   0.0000
  3288 O113    18.9887  52.1400  25.1167   O.3       1 RES1   0.0000
  3289 O114    18.9887  45.9514  19.4703   O.3       1 RES1   0.0000
  3290 O117     7.2819  54.6583  34.3052   O.3       1 RES1   0.0000
  3291 O118     1.6355  54.6583  28.1166   O.3       1 RES1   0.0000
  3292 O121     1.0630  43.5240  36.7326   O.3       1 RES1   0.0000
  3293 O121    18.8978  43.5240  18.8978   O.3       1 RES1   0.0000
  3294 O122     7.8544  54.5674  18.8978   O.3       1 RES1   0.0000
  3295 O124     1.0630  54.5674  25.6892   O.3       1 RES1   0.0000
  3296 O124    18.8978  36.7326  25.6892   O.3       1 RES1   0.0000
  3297 O125    -1.0630  45.6500  34.6066   O.3       1 RES1   0.0000
  3298 O128    -1.0630  52.4414  27.8152   O.3       1 RES1   0.0000
  3299 O129    18.8978  45.8105  16.9502   O.3       1 RES1   0.0000
  3300 O132    18.8978  52.2809  27.6368   O.3       1 RES1   0.0000
  3301 O133    -0.8846  54.5674  27.9757   O.3       1 RES1   0.0000
  3302 O134    -0.8846  43.5240  34.4461   O.3       1 RES1   0.0000
  3303 O136     9.8020  54.5674  34.4461   O.3       1 RES1   0.0000
  3304 O140    16.6113  45.4716  36.7326   O.3       1 RES1   0.0000
  3305 O141    -1.0630  43.3635  36.5542   O.3       1 RES1   0.0000
  3306 O141    16.7718  43.3635  36.5542   O.3       1 RES1   0.0000
  3307 O142     9.9804  36.8931  36.5542   O.3       1 RES1   0.0000
  3308 O144    -1.0630  36.8931  25.8676   O.3       1 RES1   0.0000
  3309 O145    18.7194  52.4414  25.5287   O.3       1 RES1   0.0000
  3310 O146    18.7194  45.6500  19.0583   O.3       1 RES1   0.0000
  3311 O149     7.6939  54.3890  34.6066   O.3       1 RES1   0.0000
  3312 O150     1.2235  54.3890  27.8152   O.3       1 RES1   0.0000
  3313 O153     1.4000  43.1870  37.0696   O.3       1 RES1   0.0000
  3314 O153    19.2348  43.1870  19.2348   O.3       1 RES1   0.0000
  3315 O154     7.5174  54.9044  19.2348   O.3       1 RES1   0.0000
  3316 O156     1.4000  54.9044  25.3522   O.3       1 RES1   0.0000
  3317 O156    19.2348  37.0696  25.3522   O.3       1 RES1   0.0000
  3318 O157    -1.4000  45.9870  34.2696   O.3       1 RES1   0.0000
  3319 O160    -1.4000  52.1044  28.1522   O.3       1 RES1   0.0000
  3320 Zr3      6.4589  44.7855  44.3751   Zr        1 RES1   0.0000
  3321 Zr4      2.4585  53.3059  44.3751   Zr        1 RES1   0.0000
  3322 Zr6      0.2119  42.1285  53.3059   Zr        1 RES1   0.0000
  3323 Zr7      8.7055  42.1285  44.7855   Zr        1 RES1   0.0000
  3324 Zr11     9.1159  44.3751  42.1285   Zr        1 RES1   0.0000
  3325 Zr13    15.3763  44.3885  53.2925   Zr        1 RES1   0.0000
  3326 Zr15    11.3759  44.3885  44.7989   Zr        1 RES1   0.0000
  3327 Zr17    17.6229  51.0459  44.3885   Zr        1 RES1   0.0000
  3328 Zr19     9.1293  47.0455  44.3885   Zr        1 RES1   0.0000
  3329 Zr21     8.7189  53.2925  51.0459   Zr        1 RES1   0.0000
  3330 Zr22     0.1985  53.2925  47.0455   Zr        1 RES1   0.0000
  3331 Zr23     8.7189  44.7989  47.0455   Zr        1 RES1   0.0000
  3332 Zr24     0.1985  44.7989  51.0459   Zr        1 RES1   0.0000
  3333 O1       3.7275  42.9551  35.8123   O.co2     1 RES1   0.0000
  3334 O3       5.1899  42.9551  44.4443   O.co2     1 RES1   0.0000
  3335 O5       0.1427  39.3971  42.9551   O.co2     1 RES1   0.0000
  3336 O7       8.7747  40.8595  42.9551   O.co2     1 RES1   0.0000
  3337 O9       7.2855  35.8123  39.3971   O.co2     1 RES1   0.0000
  3338 O10      1.6319  35.8123  40.8595   O.co2     1 RES1   0.0000
  3339 O11      7.2855  44.4443  40.8595   O.co2     1 RES1   0.0000
  3340 O12      1.6319  44.4443  39.3971   O.co2     1 RES1   0.0000
  3341 O13     14.1073  46.2189  53.3617   O.co2     1 RES1   0.0000
  3342 O14     12.6449  51.8725  53.3617   O.co2     1 RES1   0.0000
  3343 O15     12.6449  46.2189  44.7297   O.co2     1 RES1   0.0000
  3344 O16     14.1073  51.8725  44.7297   O.co2     1 RES1   0.0000
  3345 O17     17.6921  49.7769  46.2189   O.co2     1 RES1   0.0000
  3346 O18     17.6921  48.3145  51.8725   O.co2     1 RES1   0.0000
  3347 O19      9.0601  48.3145  46.2189   O.co2     1 RES1   0.0000
  3348 O20      9.0601  49.7769  51.8725   O.co2     1 RES1   0.0000
  3349 O21     10.5493  53.3617  49.7769   O.co2     1 RES1   0.0000
  3350 O22     16.2029  53.3617  48.3145   O.co2     1 RES1   0.0000
  3351 O23     10.5493  44.7297  48.3145   O.co2     1 RES1   0.0000
  3352 O24     16.2029  44.7297  49.7769   O.co2     1 RES1   0.0000
  3353 O25      3.3957  46.8092  36.1083   O.co2     1 RES1   0.0000
  3354 O26      5.5217  51.2822  36.1083   O.co2     1 RES1   0.0000
  3355 O27      5.5217  46.8092  44.1483   O.co2     1 RES1   0.0000
  3356 O28      3.3957  51.2822  44.1483   O.co2     1 RES1   0.0000
  3357 O29      0.4387  39.0653  46.8092   O.co2     1 RES1   0.0000
  3358 O30      0.4387  41.1913  51.2822   O.co2     1 RES1   0.0000
  3359 O31      8.4787  41.1913  46.8092   O.co2     1 RES1   0.0000
  3360 O32      8.4787  39.0653  51.2822   O.co2     1 RES1   0.0000
  3361 O33     11.1396  36.1083  39.0653   O.co2     1 RES1   0.0000
  3362 O34     15.6126  36.1083  41.1913   O.co2     1 RES1   0.0000
  3363 O35     11.1396  44.1483  41.1913   O.co2     1 RES1   0.0000
  3364 O36     15.6126  44.1483  39.0653   O.co2     1 RES1   0.0000
  3365 O37     14.4391  42.3648  53.0657   O.co2     1 RES1   0.0000
  3366 O38     12.3131  37.8918  53.0657   O.co2     1 RES1   0.0000
  3367 O39     12.3131  42.3648  45.0257   O.co2     1 RES1   0.0000
  3368 O40     14.4391  37.8918  45.0257   O.co2     1 RES1   0.0000
  3369 O41     17.3961  50.1087  42.3648   O.co2     1 RES1   0.0000
  3370 O42     17.3961  47.9827  37.8918   O.co2     1 RES1   0.0000
  3371 O43      9.3561  47.9827  42.3648   O.co2     1 RES1   0.0000
  3372 O44      9.3561  50.1087  37.8918   O.co2     1 RES1   0.0000
  3373 O45      6.6952  53.0657  50.1087   O.co2     1 RES1   0.0000
  3374 O46      2.2222  53.0657  47.9827   O.co2     1 RES1   0.0000
  3375 O47      6.6952  45.0257  47.9827   O.co2     1 RES1   0.0000
  3376 O48      2.2222  45.0257  50.1087   O.co2     1 RES1   0.0000
  3377 O49      3.3815  44.7172  37.9221   O.co2     1 RES1   0.0000
  3378 O51      5.5359  44.7172  42.3345   O.co2     1 RES1   0.0000
  3379 O53      2.2525  39.0511  44.7172   O.co2     1 RES1   0.0000
  3380 O55      6.6649  41.2055  44.7172   O.co2     1 RES1   0.0000
  3381 O57      9.0476  37.9221  39.0511   O.co2     1 RES1   0.0000
  3382 O58     -0.1302  37.9221  41.2055   O.co2     1 RES1   0.0000
  3383 O59      9.0476  42.3345  41.2055   O.co2     1 RES1   0.0000
  3384 O60     -0.1302  42.3345  39.0511   O.co2     1 RES1   0.0000
  3385 O61     14.4533  44.4568  51.2519   O.co2     1 RES1   0.0000
  3386 O62     12.2989  53.6346  51.2519   O.co2     1 RES1   0.0000
  3387 O63     12.2989  44.4568  46.8395   O.co2     1 RES1   0.0000
  3388 O64     14.4533  53.6346  46.8395   O.co2     1 RES1   0.0000
  3389 O65     15.5823  50.1229  44.4568   O.co2     1 RES1   0.0000
  3390 O66     15.5823  47.9685  53.6346   O.co2     1 RES1   0.0000
  3391 O67     11.1699  47.9685  44.4568   O.co2     1 RES1   0.0000
  3392 O68     11.1699  50.1229  53.6346   O.co2     1 RES1   0.0000
  3393 O69      8.7872  51.2519  50.1229   O.co2     1 RES1   0.0000
  3394 O70     17.9650  51.2519  47.9685   O.co2     1 RES1   0.0000
  3395 O71      8.7872  46.8395  47.9685   O.co2     1 RES1   0.0000
  3396 O72     17.9650  46.8395  50.1229   O.co2     1 RES1   0.0000
  3397 O73      3.7239  45.0133  51.8886   O.co2     1 RES1   0.0000
  3398 O74      5.1935  53.0781  51.8886   O.co2     1 RES1   0.0000
  3399 O75      5.1935  45.0133  46.2028   O.co2     1 RES1   0.0000
  3400 O76      3.7239  53.0781  46.2028   O.co2     1 RES1   0.0000
  3401 O77     16.2190  39.3935  45.0133   O.co2     1 RES1   0.0000
  3402 O78     16.2190  40.8631  53.0781   O.co2     1 RES1   0.0000
  3403 O79     10.5332  40.8631  45.0133   O.co2     1 RES1   0.0000
  3404 O80     10.5332  39.3935  53.0781   O.co2     1 RES1   0.0000
  3405 O81      9.3437  51.8886  39.3935   O.co2     1 RES1   0.0000
  3406 O82     17.4085  51.8886  40.8631   O.co2     1 RES1   0.0000
  3407 O83      9.3437  46.2028  40.8631   O.co2     1 RES1   0.0000
  3408 O84     17.4085  46.2028  39.3935   O.co2     1 RES1   0.0000
  3409 O87     12.6413  44.1607  42.9712   O.co2     1 RES1   0.0000
  3410 O88     14.1109  36.0959  42.9712   O.co2     1 RES1   0.0000
  3411 O89      1.6158  49.7805  44.1607   O.co2     1 RES1   0.0000
  3412 O90      1.6158  48.3109  36.0959   O.co2     1 RES1   0.0000
  3413 O91      7.3016  48.3109  44.1607   O.co2     1 RES1   0.0000
  3414 O92      7.3016  49.7805  36.0959   O.co2     1 RES1   0.0000
  3415 O95      8.4911  42.9712  48.3109   O.co2     1 RES1   0.0000
  3416 O96      0.4263  42.9712  49.7805   O.co2     1 RES1   0.0000
  3417 C1       2.8607  47.9596  36.0976   C.2       1 RES1   0.0000
  3418 C2       6.0567  50.1318  36.0976   C.2       1 RES1   0.0000
  3419 C3       6.0567  47.9596  44.1590   C.2       1 RES1   0.0000
  3420 C4       2.8607  50.1318  44.1590   C.2       1 RES1   0.0000
  3421 C5       0.4280  38.5303  47.9596   C.2       1 RES1   0.0000
  3422 C6       0.4280  41.7263  50.1318   C.2       1 RES1   0.0000
  3423 C7       8.4894  41.7263  47.9596   C.2       1 RES1   0.0000
  3424 C8       8.4894  38.5303  50.1318   C.2       1 RES1   0.0000
  3425 C9      12.2900  36.0976  38.5303   C.2       1 RES1   0.0000
  3426 C10     14.4622  36.0976  41.7263   C.2       1 RES1   0.0000
  3427 C11     12.2900  44.1590  41.7263   C.2       1 RES1   0.0000
  3428 C12     14.4622  44.1590  38.5303   C.2       1 RES1   0.0000
  3429 C13     14.9741  41.2144  53.0764   C.2       1 RES1   0.0000
  3430 C14     11.7781  39.0422  53.0764   C.2       1 RES1   0.0000
  3431 C15     11.7781  41.2144  45.0150   C.2       1 RES1   0.0000
  3432 C16     14.9741  39.0422  45.0150   C.2       1 RES1   0.0000
  3433 C17     17.4068  50.6437  41.2144   C.2       1 RES1   0.0000
  3434 C18     17.4068  47.4477  39.0422   C.2       1 RES1   0.0000
  3435 C19      9.3454  47.4477  41.2144   C.2       1 RES1   0.0000
  3436 C20      9.3454  50.6437  39.0422   C.2       1 RES1   0.0000
  3437 C21      5.5448  53.0764  50.6437   C.2       1 RES1   0.0000
  3438 C22      3.3726  53.0764  47.4477   C.2       1 RES1   0.0000
  3439 C23      5.5448  45.0150  47.4477   C.2       1 RES1   0.0000
  3440 C24      3.3726  45.0150  50.6437   C.2       1 RES1   0.0000
  3441 C25      3.8202  49.1438  36.1030   C.2       1 RES1   0.0000
  3442 C26      5.0972  48.9476  36.1030   C.2       1 RES1   0.0000
  3443 C27      5.0972  49.1438  44.1536   C.2       1 RES1   0.0000
  3444 C28      3.8202  48.9476  44.1536   C.2       1 RES1   0.0000
  3445 C29      0.4334  39.4898  49.1438   C.2       1 RES1   0.0000
  3446 C30      0.4334  40.7668  48.9476   C.2       1 RES1   0.0000
  3447 C31      8.4840  40.7668  49.1438   C.2       1 RES1   0.0000
  3448 C32      8.4840  39.4898  48.9476   C.2       1 RES1   0.0000
  3449 C33     13.4742  36.1030  39.4898   C.2       1 RES1   0.0000
  3450 C34     13.2780  36.1030  40.7668   C.2       1 RES1   0.0000
  3451 C35     13.4742  44.1536  40.7668   C.2       1 RES1   0.0000
  3452 C36     13.2780  44.1536  39.4898   C.2       1 RES1   0.0000
  3453 C37     14.0146  40.0302  53.0710   C.2       1 RES1   0.0000
  3454 C38     12.7376  40.2264  53.0710   C.2       1 RES1   0.0000
  3455 C39     12.7376  40.0302  45.0204   C.2       1 RES1   0.0000
  3456 C40     14.0146  40.2264  45.0204   C.2       1 RES1   0.0000
  3457 C41     17.4014  49.6842  40.0302   C.2       1 RES1   0.0000
  3458 C42     17.4014  48.4072  40.2264   C.2       1 RES1   0.0000
  3459 C43      9.3508  48.4072  40.0302   C.2       1 RES1   0.0000
  3460 C44      9.3508  49.6842  40.2264   C.2       1 RES1   0.0000
  3461 C45      4.3606  53.0710  49.6842   C.2       1 RES1   0.0000
  3462 C46      4.5568  53.0710  48.4072   C.2       1 RES1   0.0000
  3463 C47      4.3606  45.0204  48.4072   C.2       1 RES1   0.0000
  3464 C48      4.5568  45.0204  49.6842   C.2       1 RES1   0.0000
  3465 H1       3.4867  50.0123  36.1048   H         1 RES1   0.0000
  3466 H2       5.4307  48.0791  36.1048   H         1 RES1   0.0000
  3467 H3       5.4307  50.0123  44.1518   H         1 RES1   0.0000
  3468 H4       3.4867  48.0791  44.1518   H         1 RES1   0.0000
  3469 H5       0.4352  39.1563  50.0123   H         1 RES1   0.0000
  3470 H6       0.4352  41.1003  48.0791   H         1 RES1   0.0000
  3471 H7       8.4822  41.1003  50.0123   H         1 RES1   0.0000
  3472 H8       8.4822  39.1563  48.0791   H         1 RES1   0.0000
  3473 H9      14.3427  36.1048  39.1563   H         1 RES1   0.0000
  3474 H10     12.4095  36.1048  41.1003   H         1 RES1   0.0000
  3475 H11     14.3427  44.1518  41.1003   H         1 RES1   0.0000
  3476 H12     12.4095  44.1518  39.1563   H         1 RES1   0.0000
  3477 H13     14.3481  39.1617  53.0692   H         1 RES1   0.0000
  3478 H14     12.4041  41.0949  53.0692   H         1 RES1   0.0000
  3479 H15     12.4041  39.1617  45.0222   H         1 RES1   0.0000
  3480 H16     14.3481  41.0949  45.0222   H         1 RES1   0.0000
  3481 H17     17.3996  50.0177  39.1617   H         1 RES1   0.0000
  3482 H18     17.3996  48.0737  41.0949   H         1 RES1   0.0000
  3483 H19      9.3526  48.0737  39.1617   H         1 RES1   0.0000
  3484 H20      9.3526  50.0177  41.0949   H         1 RES1   0.0000
  3485 H21      3.4921  53.0692  50.0177   H         1 RES1   0.0000
  3486 H22      5.4253  53.0692  48.0737   H         1 RES1   0.0000
  3487 H23      3.4921  45.0222  48.0737   H         1 RES1   0.0000
  3488 H24      5.4253  45.0222  50.0177   H         1 RES1   0.0000
  3489 C49      3.3993  41.7299  35.6696   C.2       1 RES1   0.0000
  3490 C50      5.5181  38.5267  35.6696   C.2       1 RES1   0.0000
  3491 C51      5.5181  41.7299  44.5870   C.2       1 RES1   0.0000
  3492 C52      3.3993  38.5267  44.5870   C.2       1 RES1   0.0000
  3493 C53      0.0000  39.0689  41.7299   C.2       1 RES1   0.0000
  3494 C54      0.0000  41.1877  38.5267   C.2       1 RES1   0.0000
  3495 C55      8.9174  41.1877  41.7299   C.2       1 RES1   0.0000
  3496 C56      8.9174  39.0689  38.5267   C.2       1 RES1   0.0000
  3497 C57      6.0603  35.6696  39.0689   C.2       1 RES1   0.0000
  3498 C58      2.8571  35.6696  41.1877   C.2       1 RES1   0.0000
  3499 C59      6.0603  44.5870  41.1877   C.2       1 RES1   0.0000
  3500 C60      2.8571  44.5870  39.0689   C.2       1 RES1   0.0000
  3501 C61     14.4355  47.4441  53.5044   C.2       1 RES1   0.0000
  3502 C62     12.3167  50.6473  53.5044   C.2       1 RES1   0.0000
  3503 C63     12.3167  47.4441  44.5870   C.2       1 RES1   0.0000
  3504 C64     14.4355  50.6473  44.5870   C.2       1 RES1   0.0000
  3505 C65     17.8348  50.1051  47.4441   C.2       1 RES1   0.0000
  3506 C66     17.8348  47.9863  50.6473   C.2       1 RES1   0.0000
  3507 C67      8.9174  47.9863  47.4441   C.2       1 RES1   0.0000
  3508 C68      8.9174  50.1051  50.6473   C.2       1 RES1   0.0000
  3509 C69     11.7745  53.5044  50.1051   C.2       1 RES1   0.0000
  3510 C70     14.9777  53.5044  47.9863   C.2       1 RES1   0.0000
  3511 C71     11.7745  44.5870  47.9863   C.2       1 RES1   0.0000
  3512 C72     14.9777  44.5870  50.1051   C.2       1 RES1   0.0000
  3513 C73      4.5782  40.7793  35.6714   C.2       1 RES1   0.0000
  3514 C74      4.3392  39.4773  35.6714   C.2       1 RES1   0.0000
  3515 C75      4.3392  40.7793  44.5852   C.2       1 RES1   0.0000
  3516 C76      4.5782  39.4773  44.5852   C.2       1 RES1   0.0000
  3517 C77      0.0018  40.2478  40.7793   C.2       1 RES1   0.0000
  3518 C78      0.0018  40.0088  39.4773   C.2       1 RES1   0.0000
  3519 C79      8.9156  40.0088  40.7793   C.2       1 RES1   0.0000
  3520 C80      8.9156  40.2478  39.4773   C.2       1 RES1   0.0000
  3521 C81      5.1097  35.6714  40.2478   C.2       1 RES1   0.0000
  3522 C82      3.8077  35.6714  40.0088   C.2       1 RES1   0.0000
  3523 C83      5.1097  44.5852  40.0088   C.2       1 RES1   0.0000
  3524 C84      3.8077  44.5852  40.2478   C.2       1 RES1   0.0000
  3525 C85     13.2566  48.3947  53.5026   C.2       1 RES1   0.0000
  3526 C86     13.4956  49.6967  53.5026   C.2       1 RES1   0.0000
  3527 C87     13.4956  48.3947  44.5888   C.2       1 RES1   0.0000
  3528 C88     13.2566  49.6967  44.5888   C.2       1 RES1   0.0000
  3529 C89     17.8330  48.9262  48.3947   C.2       1 RES1   0.0000
  3530 C90     17.8330  49.1652  49.6967   C.2       1 RES1   0.0000
  3531 C91      8.9192  49.1652  48.3947   C.2       1 RES1   0.0000
  3532 C92      8.9192  48.9262  49.6967   C.2       1 RES1   0.0000
  3533 C93     12.7251  53.5026  48.9262   C.2       1 RES1   0.0000
  3534 C94     14.0271  53.5026  49.1652   C.2       1 RES1   0.0000
  3535 C95     12.7251  44.5888  49.1652   C.2       1 RES1   0.0000
  3536 C96     14.0271  44.5888  48.9262   C.2       1 RES1   0.0000
  3537 H25      5.4503  41.1021  35.6714   H         1 RES1   0.0000
  3538 H26      3.4671  39.1545  35.6714   H         1 RES1   0.0000
  3539 H27      3.4671  41.1021  44.5852   H         1 RES1   0.0000
  3540 H28      5.4503  39.1545  44.5852   H         1 RES1   0.0000
  3541 H29      0.0018  41.1199  41.1021   H         1 RES1   0.0000
  3542 H30      0.0018  39.1367  39.1545   H         1 RES1   0.0000
  3543 H31      8.9156  39.1367  41.1021   H         1 RES1   0.0000
  3544 H32      8.9156  41.1199  39.1545   H         1 RES1   0.0000
  3545 H33      5.4325  35.6714  41.1199   H         1 RES1   0.0000
  3546 H34      3.4849  35.6714  39.1367   H         1 RES1   0.0000
  3547 H35      5.4325  44.5852  39.1367   H         1 RES1   0.0000
  3548 H36      3.4849  44.5852  41.1199   H         1 RES1   0.0000
  3549 H37     12.3845  48.0719  53.5026   H         1 RES1   0.0000
  3550 H38     14.3677  50.0195  53.5026   H         1 RES1   0.0000
  3551 H39     14.3677  48.0719  44.5888   H         1 RES1   0.0000
  3552 H40     12.3845  50.0195  44.5888   H         1 RES1   0.0000
  3553 H41     17.8330  48.0541  48.0719   H         1 RES1   0.0000
  3554 H42     17.8330  50.0373  50.0195   H         1 RES1   0.0000
  3555 H43      8.9192  50.0373  48.0719   H         1 RES1   0.0000
  3556 H44      8.9192  48.0541  50.0195   H         1 RES1   0.0000
  3557 H45     12.4023  53.5026  48.0541   H         1 RES1   0.0000
  3558 H46     14.3499  53.5026  50.0373   H         1 RES1   0.0000
  3559 H47     12.4023  44.5888  50.0373   H         1 RES1   0.0000
  3560 H48     14.3499  44.5888  48.0541   H         1 RES1   0.0000
  3561 O97      1.3644  46.2225  52.3505   O.3       1 RES1   0.0000
  3562 O98      7.5530  51.8689  52.3505   O.3       1 RES1   0.0000
  3563 O99      7.5530  46.2225  45.7409   O.3       1 RES1   0.0000
  3564 O100     1.3644  51.8689  45.7409   O.3       1 RES1   0.0000
  3565 O101    16.6809  37.0340  46.2225   O.3       1 RES1   0.0000
  3566 O102    16.6809  43.2226  51.8689   O.3       1 RES1   0.0000
  3567 O103    10.0713  43.2226  46.2225   O.3       1 RES1   0.0000
  3568 O105    10.5529  52.3505  37.0340   O.3       1 RES1   0.0000
  3569 O106    16.1993  52.3505  43.2226   O.3       1 RES1   0.0000
  3570 O107    10.5529  45.7409  43.2226   O.3       1 RES1   0.0000
  3571 O111    10.2818  42.9515  43.4331   O.3       1 RES1   0.0000
  3572 O112    16.4704  37.3051  43.4331   O.3       1 RES1   0.0000
  3573 O113     1.1539  52.1400  42.9515   O.3       1 RES1   0.0000
  3574 O114     1.1539  45.9514  37.3051   O.3       1 RES1   0.0000
  3575 O115     7.7635  45.9514  42.9515   O.3       1 RES1   0.0000
  3576 O116     7.7635  52.1400  37.3051   O.3       1 RES1   0.0000
  3577 O119     7.2819  43.4331  45.9514   O.3       1 RES1   0.0000
  3578 O120     1.6355  43.4331  52.1400   O.3       1 RES1   0.0000
  3579 O123     7.8544  43.5240  43.5240   O.3       1 RES1   0.0000
  3580 O125    16.7718  45.6500  52.4414   O.3       1 RES1   0.0000
  3581 O126     9.9804  52.4414  52.4414   O.3       1 RES1   0.0000
  3582 O127     9.9804  45.6500  45.6500   O.3       1 RES1   0.0000
  3583 O128    16.7718  52.4414  45.6500   O.3       1 RES1   0.0000
  3584 O129     1.0630  45.8105  52.6198   O.3       1 RES1   0.0000
  3585 O130     7.8544  52.2809  52.6198   O.3       1 RES1   0.0000
  3586 O131     7.8544  45.8105  45.4716   O.3       1 RES1   0.0000
  3587 O132     1.0630  52.2809  45.4716   O.3       1 RES1   0.0000
  3588 O133    16.9502  36.7326  45.8105   O.3       1 RES1   0.0000
  3589 O134    16.9502  43.5240  52.2809   O.3       1 RES1   0.0000
  3590 O135     9.8020  43.5240  45.8105   O.3       1 RES1   0.0000
  3591 O137    10.1409  52.6198  36.7326   O.3       1 RES1   0.0000
  3592 O138    16.6113  52.6198  43.5240   O.3       1 RES1   0.0000
  3593 O139    10.1409  45.4716  43.5240   O.3       1 RES1   0.0000
  3594 O143     9.9804  43.3635  43.7024   O.3       1 RES1   0.0000
  3595 O144    16.7718  36.8931  43.7024   O.3       1 RES1   0.0000
  3596 O145     0.8846  52.4414  43.3635   O.3       1 RES1   0.0000
  3597 O146     0.8846  45.6500  36.8931   O.3       1 RES1   0.0000
  3598 O147     8.0328  45.6500  43.3635   O.3       1 RES1   0.0000
  3599 O148     8.0328  52.4414  36.8931   O.3       1 RES1   0.0000
  3600 O151     7.6939  43.7024  45.6500   O.3       1 RES1   0.0000
  3601 O152     1.2235  43.7024  52.4414   O.3       1 RES1   0.0000
  3602 O155     7.5174  43.1870  43.1870   O.3       1 RES1   0.0000
  3603 O157    16.4348  45.9870  52.1044   O.3       1 RES1   0.0000
  3604 O158    10.3174  52.1044  52.1044   O.3       1 RES1   0.0000
  3605 O159    10.3174  45.9870  45.9870   O.3       1 RES1   0.0000
  3606 O160    16.4348  52.1044  45.9870   O.3       1 RES1   0.0000
  3607 Zr1      2.4585  44.7855  53.7163   Zr        1 RES1   0.0000
  3608 Zr1     20.2933  44.7855  35.8815   Zr        1 RES1   0.0000
  3609 Zr2      6.4589  53.3059  53.7163   Zr        1 RES1   0.0000
  3610 Zr4     20.2933  53.3059  44.3751   Zr        1 RES1   0.0000
  3611 Zr5      0.2119  55.9629  44.7855   Zr        1 RES1   0.0000
  3612 Zr5     18.0467  38.1281  44.7855   Zr        1 RES1   0.0000
  3613 Zr6     18.0467  42.1285  53.3059   Zr        1 RES1   0.0000
  3614 Zr8      8.7055  55.9629  53.3059   Zr        1 RES1   0.0000
  3615 Zr9      9.1159  35.8815  55.9629   Zr        1 RES1   0.0000
  3616 Zr9      9.1159  53.7163  38.1281   Zr        1 RES1   0.0000
  3617 Zr10    -0.1985  53.7163  42.1285   Zr        1 RES1   0.0000
  3618 Zr10    17.6363  53.7163  42.1285   Zr        1 RES1   0.0000
  3619 Zr12    -0.1985  44.3751  55.9629   Zr        1 RES1   0.0000
  3620 Zr12    17.6363  44.3751  55.9629   Zr        1 RES1   0.0000
  3621 Zr13    -2.4585  44.3885  53.2925   Zr        1 RES1   0.0000
  3622 Zr14    11.3759  53.7029  53.2925   Zr        1 RES1   0.0000
  3623 Zr16    -2.4585  53.7029  44.7989   Zr        1 RES1   0.0000
  3624 Zr16    15.3763  53.7029  44.7989   Zr        1 RES1   0.0000
  3625 Zr17    -0.2119  51.0459  44.3885   Zr        1 RES1   0.0000
  3626 Zr18    -0.2119  47.0455  53.7029   Zr        1 RES1   0.0000
  3627 Zr18    17.6229  47.0455  53.7029   Zr        1 RES1   0.0000
  3628 Zr20     9.1293  51.0459  53.7029   Zr        1 RES1   0.0000
  3629 Zr22    18.0333  53.2925  47.0455   Zr        1 RES1   0.0000
  3630 Zr24    18.0333  44.7989  51.0459   Zr        1 RES1   0.0000
  3631 O2       5.1899  55.1363  35.8123   O.2       1 RES1   0.0000
  3632 O4       3.7275  55.1363  44.4443   O.2       1 RES1   0.0000
  3633 O6       0.1427  40.8595  55.1363   O.2       1 RES1   0.0000
  3634 O8       8.7747  39.3971  55.1363   O.2       1 RES1   0.0000
  3635 O10     19.4667  35.8123  40.8595   O.co2     1 RES1   0.0000
  3636 O12     19.4667  44.4443  39.3971   O.co2     1 RES1   0.0000
  3637 O22     -1.6319  53.3617  48.3145   O.2       1 RES1   0.0000
  3638 O24     -1.6319  44.7297  49.7769   O.2       1 RES1   0.0000
  3639 O50      5.5359  53.3742  37.9221   O.2       1 RES1   0.0000
  3640 O52      3.3815  53.3742  42.3345   O.2       1 RES1   0.0000
  3641 O54      2.2525  41.2055  53.3742   O.2       1 RES1   0.0000
  3642 O56      6.6649  39.0511  53.3742   O.2       1 RES1   0.0000
  3643 O58     17.7046  37.9221  41.2055   O.co2     1 RES1   0.0000
  3644 O60     17.7046  42.3345  39.0511   O.co2     1 RES1   0.0000
  3645 O70      0.1302  51.2519  47.9685   O.2       1 RES1   0.0000
  3646 O72      0.1302  46.8395  50.1229   O.2       1 RES1   0.0000
  3647 O77     -1.6158  39.3935  45.0133   O.2       1 RES1   0.0000
  3648 O78     -1.6158  40.8631  53.0781   O.2       1 RES1   0.0000
  3649 O85     14.1109  44.1607  55.1202   O.2       1 RES1   0.0000
  3650 O86     12.6413  36.0959  55.1202   O.2       1 RES1   0.0000
  3651 O89     19.4506  49.7805  44.1607   O.co2     1 RES1   0.0000
  3652 O90     19.4506  48.3109  36.0959   O.co2     1 RES1   0.0000
  3653 O93      8.4911  55.1202  49.7805   O.2       1 RES1   0.0000
  3654 O94      0.4263  55.1202  48.3109   O.2       1 RES1   0.0000
  3655 O97     19.1992  46.2225  34.5157   O.3       1 RES1   0.0000
  3656 O100    19.1992  51.8689  45.7409   O.3       1 RES1   0.0000
  3657 O101    -1.1539  54.8688  46.2225   O.3       1 RES1   0.0000
  3658 O102    -1.1539  43.2226  51.8689   O.3       1 RES1   0.0000
  3659 O104    10.0713  54.8688  51.8689   O.3       1 RES1   0.0000
  3660 O105    10.5529  34.5157  54.8688   O.3       1 RES1   0.0000
  3661 O108    16.1993  45.7409  54.8688   O.3       1 RES1   0.0000
  3662 O109    -1.3644  42.9515  54.6583   O.3       1 RES1   0.0000
  3663 O109    16.4704  42.9515  54.6583   O.3       1 RES1   0.0000
  3664 O110    10.2818  37.3051  54.6583   O.3       1 RES1   0.0000
  3665 O112    -1.3644  37.3051  43.4331   O.3       1 RES1   0.0000
  3666 O113    18.9887  52.1400  42.9515   O.3       1 RES1   0.0000
  3667 O114    18.9887  45.9514  37.3051   O.3       1 RES1   0.0000
  3668 O117     7.2819  54.6583  52.1400   O.3       1 RES1   0.0000
  3669 O118     1.6355  54.6583  45.9514   O.3       1 RES1   0.0000
  3670 O121     1.0630  43.5240  54.5674   O.3       1 RES1   0.0000
  3671 O121    18.8978  43.5240  36.7326   O.3       1 RES1   0.0000
  3672 O122     7.8544  36.7326  54.5674   O.3       1 RES1   0.0000
  3673 O122     7.8544  54.5674  36.7326   O.3       1 RES1   0.0000
  3674 O124     1.0630  54.5674  43.5240   O.3       1 RES1   0.0000
  3675 O124    18.8978  36.7326  43.5240   O.3       1 RES1   0.0000
  3676 O125    -1.0630  45.6500  52.4414   O.3       1 RES1   0.0000
  3677 O128    -1.0630  52.4414  45.6500   O.3       1 RES1   0.0000
  3678 O129    18.8978  45.8105  34.7850   O.3       1 RES1   0.0000
  3679 O132    18.8978  52.2809  45.4716   O.3       1 RES1   0.0000
  3680 O133    -0.8846  54.5674  45.8105   O.3       1 RES1   0.0000
  3681 O134    -0.8846  43.5240  52.2809   O.3       1 RES1   0.0000
  3682 O136     9.8020  54.5674  52.2809   O.3       1 RES1   0.0000
  3683 O137    10.1409  34.7850  54.5674   O.3       1 RES1   0.0000
  3684 O140    16.6113  45.4716  54.5674   O.3       1 RES1   0.0000
  3685 O141    -1.0630  43.3635  54.3890   O.3       1 RES1   0.0000
  3686 O141    16.7718  43.3635  54.3890   O.3       1 RES1   0.0000
  3687 O142     9.9804  36.8931  54.3890   O.3       1 RES1   0.0000
  3688 O144    -1.0630  36.8931  43.7024   O.3       1 RES1   0.0000
  3689 O145    18.7194  52.4414  43.3635   O.3       1 RES1   0.0000
  3690 O146    18.7194  45.6500  36.8931   O.3       1 RES1   0.0000
  3691 O149     7.6939  54.3890  52.4414   O.3       1 RES1   0.0000
  3692 O150     1.2235  54.3890  45.6500   O.3       1 RES1   0.0000
  3693 O153     1.4000  43.1870  54.9044   O.3       1 RES1   0.0000
  3694 O153    19.2348  43.1870  37.0696   O.3       1 RES1   0.0000
  3695 O154     7.5174  37.0696  54.9044   O.3       1 RES1   0.0000
  3696 O154     7.5174  54.9044  37.0696   O.3       1 RES1   0.0000
  3697 O156     1.4000  54.9044  43.1870   O.3       1 RES1   0.0000
  3698 O156    19.2348  37.0696  43.1870   O.3       1 RES1   0.0000
  3699 O157    -1.4000  45.9870  52.1044   O.3       1 RES1   0.0000
  3700 O160    -1.4000  52.1044  45.9870   O.3       1 RES1   0.0000
  3701 Zr2     24.2937  17.6363   0.2119   Zr        1 RES1   0.0000
  3702 Zr3     24.2937   9.1159   8.7055   Zr        1 RES1   0.0000
  3703 Zr7     26.5403   6.4589   9.1159   Zr        1 RES1   0.0000
  3704 Zr8     26.5403   2.4585  17.6363   Zr        1 RES1   0.0000
  3705 Zr9     26.9507   0.2119   2.4585   Zr        1 RES1   0.0000
  3706 Zr10    35.4711   0.2119   6.4589   Zr        1 RES1   0.0000
  3707 Zr11    26.9507   8.7055   6.4589   Zr        1 RES1   0.0000
  3708 Zr12    35.4711   8.7055   2.4585   Zr        1 RES1   0.0000
  3709 Zr13    33.2111   8.7189  17.6229   Zr        1 RES1   0.0000
  3710 Zr14    29.2107   0.1985  17.6229   Zr        1 RES1   0.0000
  3711 Zr15    29.2107   8.7189   9.1293   Zr        1 RES1   0.0000
  3712 Zr16    33.2111   0.1985   9.1293   Zr        1 RES1   0.0000
  3713 Zr17    35.4577  15.3763   8.7189   Zr        1 RES1   0.0000
  3714 Zr18    35.4577  11.3759   0.1985   Zr        1 RES1   0.0000
  3715 Zr19    26.9641  11.3759   8.7189   Zr        1 RES1   0.0000
  3716 Zr20    26.9641  15.3763   0.1985   Zr        1 RES1   0.0000
  3717 Zr21    26.5537  17.6229  15.3763   Zr        1 RES1   0.0000
  3718 Zr23    26.5537   9.1293  11.3759   Zr        1 RES1   0.0000
  3719 O1      21.5623   7.2855   0.1427   O.co2     1 RES1   0.0000
  3720 O2      23.0247   1.6319   0.1427   O.co2     1 RES1   0.0000
  3721 O3      23.0247   7.2855   8.7747   O.co2     1 RES1   0.0000
  3722 O4      21.5623   1.6319   8.7747   O.co2     1 RES1   0.0000
  3723 O5      17.9775   3.7275   7.2855   O.co2     1 RES1   0.0000
  3724 O6      17.9775   5.1899   1.6319   O.co2     1 RES1   0.0000
  3725 O7      26.6095   5.1899   7.2855   O.co2     1 RES1   0.0000
  3726 O8      26.6095   3.7275   1.6319   O.co2     1 RES1   0.0000
  3727 O9      25.1203   0.1427   3.7275   O.co2     1 RES1   0.0000
  3728 O11     25.1203   8.7747   5.1899   O.co2     1 RES1   0.0000
  3729 O13     31.9421  10.5493  17.6921   O.co2     1 RES1   0.0000
  3730 O14     30.4797  16.2029  17.6921   O.co2     1 RES1   0.0000
  3731 O15     30.4797  10.5493   9.0601   O.co2     1 RES1   0.0000
  3732 O16     31.9421  16.2029   9.0601   O.co2     1 RES1   0.0000
  3733 O17     35.5269  14.1073  10.5493   O.co2     1 RES1   0.0000
  3734 O18     35.5269  12.6449  16.2029   O.co2     1 RES1   0.0000
  3735 O19     26.8949  12.6449  10.5493   O.co2     1 RES1   0.0000
  3736 O20     26.8949  14.1073  16.2029   O.co2     1 RES1   0.0000
  3737 O21     28.3841  17.6921  14.1073   O.co2     1 RES1   0.0000
  3738 O22     34.0377  17.6921  12.6449   O.co2     1 RES1   0.0000
  3739 O23     28.3841   9.0601  12.6449   O.co2     1 RES1   0.0000
  3740 O24     34.0377   9.0601  14.1073   O.co2     1 RES1   0.0000
  3741 O25     21.2305  11.1396   0.4387   O.co2     1 RES1   0.0000
  3742 O26     23.3565  15.6126   0.4387   O.co2     1 RES1   0.0000
  3743 O27     23.3565  11.1396   8.4787   O.co2     1 RES1   0.0000
  3744 O28     21.2305  15.6126   8.4787   O.co2     1 RES1   0.0000
  3745 O29     18.2735   3.3957  11.1396   O.co2     1 RES1   0.0000
  3746 O30     18.2735   5.5217  15.6126   O.co2     1 RES1   0.0000
  3747 O31     26.3135   5.5217  11.1396   O.co2     1 RES1   0.0000
  3748 O32     26.3135   3.3957  15.6126   O.co2     1 RES1   0.0000
  3749 O33     28.9744   0.4387   3.3957   O.co2     1 RES1   0.0000
  3750 O34     33.4474   0.4387   5.5217   O.co2     1 RES1   0.0000
  3751 O35     28.9744   8.4787   5.5217   O.co2     1 RES1   0.0000
  3752 O36     33.4474   8.4787   3.3957   O.co2     1 RES1   0.0000
  3753 O37     32.2739   6.6952  17.3961   O.co2     1 RES1   0.0000
  3754 O38     30.1479   2.2222  17.3961   O.co2     1 RES1   0.0000
  3755 O39     30.1479   6.6952   9.3561   O.co2     1 RES1   0.0000
  3756 O40     32.2739   2.2222   9.3561   O.co2     1 RES1   0.0000
  3757 O41     35.2309  14.4391   6.6952   O.co2     1 RES1   0.0000
  3758 O42     35.2309  12.3131   2.2222   O.co2     1 RES1   0.0000
  3759 O43     27.1909  12.3131   6.6952   O.co2     1 RES1   0.0000
  3760 O44     27.1909  14.4391   2.2222   O.co2     1 RES1   0.0000
  3761 O45     24.5300  17.3961  14.4391   O.co2     1 RES1   0.0000
  3762 O46     20.0570  17.3961  12.3131   O.co2     1 RES1   0.0000
  3763 O47     24.5300   9.3561  12.3131   O.co2     1 RES1   0.0000
  3764 O48     20.0570   9.3561  14.4391   O.co2     1 RES1   0.0000
  3765 O49     21.2163   9.0476   2.2525   O.co2     1 RES1   0.0000
  3766 O50     23.3707  -0.1302   2.2525   O.co2     1 RES1   0.0000
  3767 O51     23.3707   9.0476   6.6649   O.co2     1 RES1   0.0000
  3768 O52     21.2163  -0.1302   6.6649   O.co2     1 RES1   0.0000
  3769 O53     20.0873   3.3815   9.0476   O.co2     1 RES1   0.0000
  3770 O54     20.0873   5.5359  -0.1302   O.co2     1 RES1   0.0000
  3771 O55     24.4997   5.5359   9.0476   O.co2     1 RES1   0.0000
  3772 O56     24.4997   3.3815  -0.1302   O.co2     1 RES1   0.0000
  3773 O57     26.8824   2.2525   3.3815   O.co2     1 RES1   0.0000
  3774 O59     26.8824   6.6649   5.5359   O.co2     1 RES1   0.0000
  3775 O61     32.2881   8.7872  15.5823   O.co2     1 RES1   0.0000
  3776 O62     30.1337  17.9650  15.5823   O.co2     1 RES1   0.0000
  3777 O63     30.1337   8.7872  11.1699   O.co2     1 RES1   0.0000
  3778 O64     32.2881  17.9650  11.1699   O.co2     1 RES1   0.0000
  3779 O65     33.4171  14.4533   8.7872   O.co2     1 RES1   0.0000
  3780 O66     33.4171  12.2989  17.9650   O.co2     1 RES1   0.0000
  3781 O67     29.0047  12.2989   8.7872   O.co2     1 RES1   0.0000
  3782 O68     29.0047  14.4533  17.9650   O.co2     1 RES1   0.0000
  3783 O69     26.6220  15.5823  14.4533   O.co2     1 RES1   0.0000
  3784 O70     35.7998  15.5823  12.2989   O.co2     1 RES1   0.0000
  3785 O71     26.6220  11.1699  12.2989   O.co2     1 RES1   0.0000
  3786 O72     35.7998  11.1699  14.4533   O.co2     1 RES1   0.0000
  3787 O73     21.5587   9.3437  16.2190   O.co2     1 RES1   0.0000
  3788 O74     23.0283  17.4085  16.2190   O.co2     1 RES1   0.0000
  3789 O75     23.0283   9.3437  10.5332   O.co2     1 RES1   0.0000
  3790 O76     21.5587  17.4085  10.5332   O.co2     1 RES1   0.0000
  3791 O77     34.0538   3.7239   9.3437   O.co2     1 RES1   0.0000
  3792 O78     34.0538   5.1935  17.4085   O.co2     1 RES1   0.0000
  3793 O79     28.3680   5.1935   9.3437   O.co2     1 RES1   0.0000
  3794 O80     28.3680   3.7239  17.4085   O.co2     1 RES1   0.0000
  3795 O81     27.1785  16.2190   3.7239   O.co2     1 RES1   0.0000
  3796 O82     35.2433  16.2190   5.1935   O.co2     1 RES1   0.0000
  3797 O83     27.1785  10.5332   5.1935   O.co2     1 RES1   0.0000
  3798 O84     35.2433  10.5332   3.7239   O.co2     1 RES1   0.0000
  3799 O85     31.9457   8.4911   1.6158   O.co2     1 RES1   0.0000
  3800 O86     30.4761   0.4263   1.6158   O.co2     1 RES1   0.0000
  3801 O87     30.4761   8.4911   7.3016   O.co2     1 RES1   0.0000
  3802 O88     31.9457   0.4263   7.3016   O.co2     1 RES1   0.0000
  3803 O91     25.1364  12.6413   8.4911   O.co2     1 RES1   0.0000
  3804 O92     25.1364  14.1109   0.4263   O.co2     1 RES1   0.0000
  3805 O93     26.3259   1.6158  14.1109   O.co2     1 RES1   0.0000
  3806 O94     18.2611   1.6158  12.6413   O.co2     1 RES1   0.0000
  3807 O95     26.3259   7.3016  12.6413   O.co2     1 RES1   0.0000
  3808 O96     18.2611   7.3016  14.1109   O.co2     1 RES1   0.0000
  3809 C1      20.6955  12.2900   0.4280   C.2       1 RES1   0.0000
  3810 C2      23.8915  14.4622   0.4280   C.2       1 RES1   0.0000
  3811 C3      23.8915  12.2900   8.4894   C.2       1 RES1   0.0000
  3812 C4      20.6955  14.4622   8.4894   C.2       1 RES1   0.0000
  3813 C5      18.2628   2.8607  12.2900   C.2       1 RES1   0.0000
  3814 C6      18.2628   6.0567  14.4622   C.2       1 RES1   0.0000
  3815 C7      26.3242   6.0567  12.2900   C.2       1 RES1   0.0000
  3816 C8      26.3242   2.8607  14.4622   C.2       1 RES1   0.0000
  3817 C9      30.1248   0.4280   2.8607   C.2       1 RES1   0.0000
  3818 C10     32.2970   0.4280   6.0567   C.2       1 RES1   0.0000
  3819 C11     30.1248   8.4894   6.0567   C.2       1 RES1   0.0000
  3820 C12     32.2970   8.4894   2.8607   C.2       1 RES1   0.0000
  3821 C13     32.8089   5.5448  17.4068   C.2       1 RES1   0.0000
  3822 C14     29.6129   3.3726  17.4068   C.2       1 RES1   0.0000
  3823 C15     29.6129   5.5448   9.3454   C.2       1 RES1   0.0000
  3824 C16     32.8089   3.3726   9.3454   C.2       1 RES1   0.0000
  3825 C17     35.2416  14.9741   5.5448   C.2       1 RES1   0.0000
  3826 C18     35.2416  11.7781   3.3726   C.2       1 RES1   0.0000
  3827 C19     27.1802  11.7781   5.5448   C.2       1 RES1   0.0000
  3828 C20     27.1802  14.9741   3.3726   C.2       1 RES1   0.0000
  3829 C21     23.3796  17.4068  14.9741   C.2       1 RES1   0.0000
  3830 C22     21.2074  17.4068  11.7781   C.2       1 RES1   0.0000
  3831 C23     23.3796   9.3454  11.7781   C.2       1 RES1   0.0000
  3832 C24     21.2074   9.3454  14.9741   C.2       1 RES1   0.0000
  3833 C25     21.6550  13.4742   0.4334   C.2       1 RES1   0.0000
  3834 C26     22.9320  13.2780   0.4334   C.2       1 RES1   0.0000
  3835 C27     22.9320  13.4742   8.4840   C.2       1 RES1   0.0000
  3836 C28     21.6550  13.2780   8.4840   C.2       1 RES1   0.0000
  3837 C29     18.2682   3.8202  13.4742   C.2       1 RES1   0.0000
  3838 C30     18.2682   5.0972  13.2780   C.2       1 RES1   0.0000
  3839 C31     26.3188   5.0972  13.4742   C.2       1 RES1   0.0000
  3840 C32     26.3188   3.8202  13.2780   C.2       1 RES1   0.0000
  3841 C33     31.3090   0.4334   3.8202   C.2       1 RES1   0.0000
  3842 C34     31.1128   0.4334   5.0972   C.2       1 RES1   0.0000
  3843 C35     31.3090   8.4840   5.0972   C.2       1 RES1   0.0000
  3844 C36     31.1128   8.4840   3.8202   C.2       1 RES1   0.0000
  3845 C37     31.8494   4.3606  17.4014   C.2       1 RES1   0.0000
  3846 C38     30.5724   4.5568  17.4014   C.2       1 RES1   0.0000
  3847 C39     30.5724   4.3606   9.3508   C.2       1 RES1   0.0000
  3848 C40     31.8494   4.5568   9.3508   C.2       1 RES1   0.0000
  3849 C41     35.2362  14.0146   4.3606   C.2       1 RES1   0.0000
  3850 C42     35.2362  12.7376   4.5568   C.2       1 RES1   0.0000
  3851 C43     27.1856  12.7376   4.3606   C.2       1 RES1   0.0000
  3852 C44     27.1856  14.0146   4.5568   C.2       1 RES1   0.0000
  3853 C45     22.1954  17.4014  14.0146   C.2       1 RES1   0.0000
  3854 C46     22.3916  17.4014  12.7376   C.2       1 RES1   0.0000
  3855 C47     22.1954   9.3508  12.7376   C.2       1 RES1   0.0000
  3856 C48     22.3916   9.3508  14.0146   C.2       1 RES1   0.0000
  3857 H1      21.3215  14.3427   0.4352   H         1 RES1   0.0000
  3858 H2      23.2655  12.4095   0.4352   H         1 RES1   0.0000
  3859 H3      23.2655  14.3427   8.4822   H         1 RES1   0.0000
  3860 H4      21.3215  12.4095   8.4822   H         1 RES1   0.0000
  3861 H5      18.2700   3.4867  14.3427   H         1 RES1   0.0000
  3862 H6      18.2700   5.4307  12.4095   H         1 RES1   0.0000
  3863 H7      26.3170   5.4307  14.3427   H         1 RES1   0.0000
  3864 H8      26.3170   3.4867  12.4095   H         1 RES1   0.0000
  3865 H9      32.1775   0.4352   3.4867   H         1 RES1   0.0000
  3866 H10     30.2443   0.4352   5.4307   H         1 RES1   0.0000
  3867 H11     32.1775   8.4822   5.4307   H         1 RES1   0.0000
  3868 H12     30.2443   8.4822   3.4867   H         1 RES1   0.0000
  3869 H13     32.1829   3.4921  17.3996   H         1 RES1   0.0000
  3870 H14     30.2389   5.4253  17.3996   H         1 RES1   0.0000
  3871 H15     30.2389   3.4921   9.3526   H         1 RES1   0.0000
  3872 H16     32.1829   5.4253   9.3526   H         1 RES1   0.0000
  3873 H17     35.2344  14.3481   3.4921   H         1 RES1   0.0000
  3874 H18     35.2344  12.4041   5.4253   H         1 RES1   0.0000
  3875 H19     27.1874  12.4041   3.4921   H         1 RES1   0.0000
  3876 H20     27.1874  14.3481   5.4253   H         1 RES1   0.0000
  3877 H21     21.3269  17.3996  14.3481   H         1 RES1   0.0000
  3878 H22     23.2601  17.3996  12.4041   H         1 RES1   0.0000
  3879 H23     21.3269   9.3526  12.4041   H         1 RES1   0.0000
  3880 H24     23.2601   9.3526  14.3481   H         1 RES1   0.0000
  3881 C49     21.2341   6.0603   0.0000   C.2       1 RES1   0.0000
  3882 C50     23.3529   2.8571   0.0000   C.2       1 RES1   0.0000
  3883 C51     23.3529   6.0603   8.9174   C.2       1 RES1   0.0000
  3884 C52     21.2341   2.8571   8.9174   C.2       1 RES1   0.0000
  3885 C53     17.8348   3.3993   6.0603   C.2       1 RES1   0.0000
  3886 C54     17.8348   5.5181   2.8571   C.2       1 RES1   0.0000
  3887 C55     26.7522   5.5181   6.0603   C.2       1 RES1   0.0000
  3888 C56     26.7522   3.3993   2.8571   C.2       1 RES1   0.0000
  3889 C57     23.8951   0.0000   3.3993   C.2       1 RES1   0.0000
  3890 C58     20.6919   0.0000   5.5181   C.2       1 RES1   0.0000
  3891 C59     23.8951   8.9174   5.5181   C.2       1 RES1   0.0000
  3892 C60     20.6919   8.9174   3.3993   C.2       1 RES1   0.0000
  3893 C61     32.2703  11.7745  17.8348   C.2       1 RES1   0.0000
  3894 C62     30.1515  14.9777  17.8348   C.2       1 RES1   0.0000
  3895 C63     30.1515  11.7745   8.9174   C.2       1 RES1   0.0000
  3896 C64     32.2703  14.9777   8.9174   C.2       1 RES1   0.0000
  3897 C65     35.6696  14.4355  11.7745   C.2       1 RES1   0.0000
  3898 C66     35.6696  12.3167  14.9777   C.2       1 RES1   0.0000
  3899 C67     26.7522  12.3167  11.7745   C.2       1 RES1   0.0000
  3900 C68     26.7522  14.4355  14.9777   C.2       1 RES1   0.0000
  3901 C69     29.6093  17.8348  14.4355   C.2       1 RES1   0.0000
  3902 C70     32.8125  17.8348  12.3167   C.2       1 RES1   0.0000
  3903 C71     29.6093   8.9174  12.3167   C.2       1 RES1   0.0000
  3904 C72     32.8125   8.9174  14.4355   C.2       1 RES1   0.0000
  3905 C73     22.4130   5.1097   0.0018   C.2       1 RES1   0.0000
  3906 C74     22.1740   3.8077   0.0018   C.2       1 RES1   0.0000
  3907 C75     22.1740   5.1097   8.9156   C.2       1 RES1   0.0000
  3908 C76     22.4130   3.8077   8.9156   C.2       1 RES1   0.0000
  3909 C77     17.8366   4.5782   5.1097   C.2       1 RES1   0.0000
  3910 C78     17.8366   4.3392   3.8077   C.2       1 RES1   0.0000
  3911 C79     26.7504   4.3392   5.1097   C.2       1 RES1   0.0000
  3912 C80     26.7504   4.5782   3.8077   C.2       1 RES1   0.0000
  3913 C81     22.9445   0.0018   4.5782   C.2       1 RES1   0.0000
  3914 C82     21.6425   0.0018   4.3392   C.2       1 RES1   0.0000
  3915 C83     22.9445   8.9156   4.3392   C.2       1 RES1   0.0000
  3916 C84     21.6425   8.9156   4.5782   C.2       1 RES1   0.0000
  3917 C85     31.0914  12.7251  17.8330   C.2       1 RES1   0.0000
  3918 C86     31.3304  14.0271  17.8330   C.2       1 RES1   0.0000
  3919 C87     31.3304  12.7251   8.9192   C.2       1 RES1   0.0000
  3920 C88     31.0914  14.0271   8.9192   C.2       1 RES1   0.0000
  3921 C89     35.6678  13.2566  12.7251   C.2       1 RES1   0.0000
  3922 C90     35.6678  13.4956  14.0271   C.2       1 RES1   0.0000
  3923 C91     26.7540  13.4956  12.7251   C.2       1 RES1   0.0000
  3924 C92     26.7540  13.2566  14.0271   C.2       1 RES1   0.0000
  3925 C93     30.5599  17.8330  13.2566   C.2       1 RES1   0.0000
  3926 C94     31.8619  17.8330  13.4956   C.2       1 RES1   0.0000
  3927 C95     30.5599   8.9192  13.4956   C.2       1 RES1   0.0000
  3928 C96     31.8619   8.9192  13.2566   C.2       1 RES1   0.0000
  3929 H25     23.2851   5.4325   0.0018   H         1 RES1   0.0000
  3930 H26     21.3019   3.4849   0.0018   H         1 RES1   0.0000
  3931 H27     21.3019   5.4325   8.9156   H         1 RES1   0.0000
  3932 H28     23.2851   3.4849   8.9156   H         1 RES1   0.0000
  3933 H29     17.8366   5.4503   5.4325   H         1 RES1   0.0000
  3934 H30     17.8366   3.4671   3.4849   H         1 RES1   0.0000
  3935 H31     26.7504   3.4671   5.4325   H         1 RES1   0.0000
  3936 H32     26.7504   5.4503   3.4849   H         1 RES1   0.0000
  3937 H33     23.2673   0.0018   5.4503   H         1 RES1   0.0000
  3938 H34     21.3197   0.0018   3.4671   H         1 RES1   0.0000
  3939 H35     23.2673   8.9156   3.4671   H         1 RES1   0.0000
  3940 H36     21.3197   8.9156   5.4503   H         1 RES1   0.0000
  3941 H37     30.2193  12.4023  17.8330   H         1 RES1   0.0000
  3942 H38     32.2025  14.3499  17.8330   H         1 RES1   0.0000
  3943 H39     32.2025  12.4023   8.9192   H         1 RES1   0.0000
  3944 H40     30.2193  14.3499   8.9192   H         1 RES1   0.0000
  3945 H41     35.6678  12.3845  12.4023   H         1 RES1   0.0000
  3946 H42     35.6678  14.3677  14.3499   H         1 RES1   0.0000
  3947 H43     26.7540  14.3677  12.4023   H         1 RES1   0.0000
  3948 H44     26.7540  12.3845  14.3499   H         1 RES1   0.0000
  3949 H45     30.2371  17.8330  12.3845   H         1 RES1   0.0000
  3950 H46     32.1847  17.8330  14.3677   H         1 RES1   0.0000
  3951 H47     30.2371   8.9192  14.3677   H         1 RES1   0.0000
  3952 H48     32.1847   8.9192  12.3845   H         1 RES1   0.0000
  3953 O98     25.3878  16.1993  16.6809   O.3       1 RES1   0.0000
  3954 O99     25.3878  10.5529  10.0713   O.3       1 RES1   0.0000
  3955 O101    34.5157   1.3644  10.5529   O.3       1 RES1   0.0000
  3956 O102    34.5157   7.5530  16.1993   O.3       1 RES1   0.0000
  3957 O103    27.9061   7.5530  10.5529   O.3       1 RES1   0.0000
  3958 O104    27.9061   1.3644  16.1993   O.3       1 RES1   0.0000
  3959 O105    28.3877  16.6809   1.3644   O.3       1 RES1   0.0000
  3960 O106    34.0341  16.6809   7.5530   O.3       1 RES1   0.0000
  3961 O107    28.3877  10.0713   7.5530   O.3       1 RES1   0.0000
  3962 O108    34.0341  10.0713   1.3644   O.3       1 RES1   0.0000
  3963 O109    34.3052   7.2819   1.1539   O.3       1 RES1   0.0000
  3964 O110    28.1166   1.6355   1.1539   O.3       1 RES1   0.0000
  3965 O111    28.1166   7.2819   7.7635   O.3       1 RES1   0.0000
  3966 O112    34.3052   1.6355   7.7635   O.3       1 RES1   0.0000
  3967 O115    25.5983  10.2818   7.2819   O.3       1 RES1   0.0000
  3968 O116    25.5983  16.4704   1.6355   O.3       1 RES1   0.0000
  3969 O117    25.1167   1.1539  16.4704   O.3       1 RES1   0.0000
  3970 O118    19.4703   1.1539  10.2818   O.3       1 RES1   0.0000
  3971 O119    25.1167   7.7635  10.2818   O.3       1 RES1   0.0000
  3972 O120    19.4703   7.7635  16.4704   O.3       1 RES1   0.0000
  3973 O122    25.6892   1.0630   1.0630   O.3       1 RES1   0.0000
  3974 O123    25.6892   7.8544   7.8544   O.3       1 RES1   0.0000
  3975 O125    34.6066   9.9804  16.7718   O.3       1 RES1   0.0000
  3976 O126    27.8152  16.7718  16.7718   O.3       1 RES1   0.0000
  3977 O127    27.8152   9.9804   9.9804   O.3       1 RES1   0.0000
  3978 O128    34.6066  16.7718   9.9804   O.3       1 RES1   0.0000
  3979 O130    25.6892  16.6113  16.9502   O.3       1 RES1   0.0000
  3980 O131    25.6892  10.1409   9.8020   O.3       1 RES1   0.0000
  3981 O133    34.7850   1.0630  10.1409   O.3       1 RES1   0.0000
  3982 O134    34.7850   7.8544  16.6113   O.3       1 RES1   0.0000
  3983 O135    27.6368   7.8544  10.1409   O.3       1 RES1   0.0000
  3984 O136    27.6368   1.0630  16.6113   O.3       1 RES1   0.0000
  3985 O137    27.9757  16.9502   1.0630   O.3       1 RES1   0.0000
  3986 O138    34.4461  16.9502   7.8544   O.3       1 RES1   0.0000
  3987 O139    27.9757   9.8020   7.8544   O.3       1 RES1   0.0000
  3988 O140    34.4461   9.8020   1.0630   O.3       1 RES1   0.0000
  3989 O141    34.6066   7.6939   0.8846   O.3       1 RES1   0.0000
  3990 O142    27.8152   1.2235   0.8846   O.3       1 RES1   0.0000
  3991 O143    27.8152   7.6939   8.0328   O.3       1 RES1   0.0000
  3992 O144    34.6066   1.2235   8.0328   O.3       1 RES1   0.0000
  3993 O147    25.8676   9.9804   7.6939   O.3       1 RES1   0.0000
  3994 O148    25.8676  16.7718   1.2235   O.3       1 RES1   0.0000
  3995 O149    25.5287   0.8846  16.7718   O.3       1 RES1   0.0000
  3996 O150    19.0583   0.8846   9.9804   O.3       1 RES1   0.0000
  3997 O151    25.5287   8.0328   9.9804   O.3       1 RES1   0.0000
  3998 O152    19.0583   8.0328  16.7718   O.3       1 RES1   0.0000
  3999 O154    25.3522   1.4000   1.4000   O.3       1 RES1   0.0000
  4000 O155    25.3522   7.5174   7.5174   O.3       1 RES1   0.0000
  4001 O157    34.2696  10.3174  16.4348   O.3       1 RES1   0.0000
  4002 O158    28.1522  16.4348  16.4348   O.3       1 RES1   0.0000
  4003 O159    28.1522  10.3174  10.3174   O.3       1 RES1   0.0000
  4004 O160    34.2696  16.4348  10.3174   O.3       1 RES1   0.0000
  4005 Zr1     38.1281   9.1159   0.2119   Zr        1 RES1   0.0000
  4006 Zr2     24.2937  -0.1985   0.2119   Zr        1 RES1   0.0000
  4007 Zr2     24.2937  -0.1985  18.0467   Zr        1 RES1   0.0000
  4008 Zr2     24.2937  17.6363  18.0467   Zr        1 RES1   0.0000
  4009 Zr4     38.1281  -0.1985   8.7055   Zr        1 RES1   0.0000
  4010 Zr4     38.1281  17.6363   8.7055   Zr        1 RES1   0.0000
  4011 Zr5     35.8815   2.4585   9.1159   Zr        1 RES1   0.0000
  4012 Zr6     35.8815   6.4589  -0.1985   Zr        1 RES1   0.0000
  4013 Zr6     35.8815   6.4589  17.6363   Zr        1 RES1   0.0000
  4014 Zr8     26.5403   2.4585  -0.1985   Zr        1 RES1   0.0000
  4015 Zr8     26.5403  20.2933  -0.1985   Zr        1 RES1   0.0000
  4016 Zr8     26.5403  20.2933  17.6363   Zr        1 RES1   0.0000
  4017 Zr9     26.9507   0.2119  20.2933   Zr        1 RES1   0.0000
  4018 Zr9     26.9507  18.0467   2.4585   Zr        1 RES1   0.0000
  4019 Zr10    35.4711  18.0467   6.4589   Zr        1 RES1   0.0000
  4020 Zr12    35.4711   8.7055  20.2933   Zr        1 RES1   0.0000
  4021 Zr13    33.2111   8.7189  -0.2119   Zr        1 RES1   0.0000
  4022 Zr14    29.2107   0.1985  -0.2119   Zr        1 RES1   0.0000
  4023 Zr14    29.2107  18.0333  -0.2119   Zr        1 RES1   0.0000
  4024 Zr14    29.2107  18.0333  17.6229   Zr        1 RES1   0.0000
  4025 Zr16    33.2111  18.0333   9.1293   Zr        1 RES1   0.0000
  4026 Zr17    35.4577  -2.4585   8.7189   Zr        1 RES1   0.0000
  4027 Zr18    35.4577  11.3759  18.0333   Zr        1 RES1   0.0000
  4028 Zr20    26.9641  -2.4585   0.1985   Zr        1 RES1   0.0000
  4029 Zr20    26.9641  -2.4585  18.0333   Zr        1 RES1   0.0000
  4030 Zr20    26.9641  15.3763  18.0333   Zr        1 RES1   0.0000
  4031 Zr21    26.5537  -0.2119  15.3763   Zr        1 RES1   0.0000
  4032 Zr21    26.5537  17.6229  -2.4585   Zr        1 RES1   0.0000
  4033 Zr22    35.8681  -0.2119  11.3759   Zr        1 RES1   0.0000
  4034 Zr22    35.8681  17.6229  11.3759   Zr        1 RES1   0.0000
  4035 Zr24    35.8681   9.1293  -2.4585   Zr        1 RES1   0.0000
  4036 Zr24    35.8681   9.1293  15.3763   Zr        1 RES1   0.0000
  4037 O2      23.0247  19.4667   0.1427   O.co2     1 RES1   0.0000
  4038 O4      21.5623  19.4667   8.7747   O.co2     1 RES1   0.0000
  4039 O6      17.9775   5.1899  19.4667   O.co2     1 RES1   0.0000
  4040 O8      26.6095   3.7275  19.4667   O.co2     1 RES1   0.0000
  4041 O10     37.3015   0.1427   5.1899   O.co2     1 RES1   0.0000
  4042 O12     37.3015   8.7747   3.7275   O.co2     1 RES1   0.0000
  4043 O14     30.4797  -1.6319  17.6921   O.2       1 RES1   0.0000
  4044 O16     31.9421  -1.6319   9.0601   O.2       1 RES1   0.0000
  4045 O18     35.5269  12.6449  -1.6319   O.2       1 RES1   0.0000
  4046 O20     26.8949  14.1073  -1.6319   O.2       1 RES1   0.0000
  4047 O50     23.3707  17.7046   2.2525   O.co2     1 RES1   0.0000
  4048 O52     21.2163  17.7046   6.6649   O.co2     1 RES1   0.0000
  4049 O54     20.0873   5.5359  17.7046   O.co2     1 RES1   0.0000
  4050 O56     24.4997   3.3815  17.7046   O.co2     1 RES1   0.0000
  4051 O58     35.5394   2.2525   5.5359   O.co2     1 RES1   0.0000
  4052 O60     35.5394   6.6649   3.3815   O.co2     1 RES1   0.0000
  4053 O62     30.1337   0.1302  15.5823   O.2       1 RES1   0.0000
  4054 O64     32.2881   0.1302  11.1699   O.2       1 RES1   0.0000
  4055 O66     33.4171  12.2989   0.1302   O.2       1 RES1   0.0000
  4056 O68     29.0047  14.4533   0.1302   O.2       1 RES1   0.0000
  4057 O73     21.5587   9.3437  -1.6158   O.2       1 RES1   0.0000
  4058 O74     23.0283  17.4085  -1.6158   O.2       1 RES1   0.0000
  4059 O81     27.1785  -1.6158   3.7239   O.2       1 RES1   0.0000
  4060 O82     35.2433  -1.6158   5.1935   O.2       1 RES1   0.0000
  4061 O85     31.9457   8.4911  19.4506   O.co2     1 RES1   0.0000
  4062 O86     30.4761   0.4263  19.4506   O.co2     1 RES1   0.0000
  4063 O89     37.2854  14.1109   8.4911   O.co2     1 RES1   0.0000
  4064 O90     37.2854  12.6413   0.4263   O.co2     1 RES1   0.0000
  4065 O93     26.3259  19.4506  14.1109   O.co2     1 RES1   0.0000
  4066 O94     18.2611  19.4506  12.6413   O.co2     1 RES1   0.0000
  4067 O97     37.0340  10.5529  -1.1539   O.3       1 RES1   0.0000
  4068 O98     25.3878  16.1993  -1.1539   O.3       1 RES1   0.0000
  4069 O100    37.0340  16.1993  10.0713   O.3       1 RES1   0.0000
  4070 O104    27.9061  19.1992  16.1993   O.3       1 RES1   0.0000
  4071 O105    28.3877  -1.1539   1.3644   O.3       1 RES1   0.0000
  4072 O105    28.3877  -1.1539  19.1992   O.3       1 RES1   0.0000
  4073 O106    34.0341  -1.1539   7.5530   O.3       1 RES1   0.0000
  4074 O108    34.0341  10.0713  19.1992   O.3       1 RES1   0.0000
  4075 O109    34.3052   7.2819  18.9887   O.3       1 RES1   0.0000
  4076 O110    28.1166   1.6355  18.9887   O.3       1 RES1   0.0000
  4077 O113    36.8235  -1.3644   7.2819   O.3       1 RES1   0.0000
  4078 O113    36.8235  16.4704   7.2819   O.3       1 RES1   0.0000
  4079 O114    36.8235  10.2818   1.6355   O.3       1 RES1   0.0000
  4080 O116    25.5983  -1.3644   1.6355   O.3       1 RES1   0.0000
  4081 O117    25.1167  18.9887  -1.3644   O.3       1 RES1   0.0000
  4082 O117    25.1167  18.9887  16.4704   O.3       1 RES1   0.0000
  4083 O118    19.4703  18.9887  10.2818   O.3       1 RES1   0.0000
  4084 O120    19.4703   7.7635  -1.3644   O.3       1 RES1   0.0000
  4085 O121    36.7326   7.8544   1.0630   O.3       1 RES1   0.0000
  4086 O122    25.6892   1.0630  18.8978   O.3       1 RES1   0.0000
  4087 O122    25.6892  18.8978   1.0630   O.3       1 RES1   0.0000
  4088 O124    36.7326   1.0630   7.8544   O.3       1 RES1   0.0000
  4089 O125    34.6066   9.9804  -1.0630   O.3       1 RES1   0.0000
  4090 O126    27.8152  -1.0630  16.7718   O.3       1 RES1   0.0000
  4091 O126    27.8152  16.7718  -1.0630   O.3       1 RES1   0.0000
  4092 O128    34.6066  -1.0630   9.9804   O.3       1 RES1   0.0000
  4093 O129    36.7326  10.1409  -0.8846   O.3       1 RES1   0.0000
  4094 O130    25.6892  16.6113  -0.8846   O.3       1 RES1   0.0000
  4095 O132    36.7326  16.6113   9.8020   O.3       1 RES1   0.0000
  4096 O136    27.6368  18.8978  16.6113   O.3       1 RES1   0.0000
  4097 O137    27.9757  -0.8846   1.0630   O.3       1 RES1   0.0000
  4098 O137    27.9757  -0.8846  18.8978   O.3       1 RES1   0.0000
  4099 O138    34.4461  -0.8846   7.8544   O.3       1 RES1   0.0000
  4100 O140    34.4461   9.8020  18.8978   O.3       1 RES1   0.0000
  4101 O141    34.6066   7.6939  18.7194   O.3       1 RES1   0.0000
  4102 O142    27.8152   1.2235  18.7194   O.3       1 RES1   0.0000
  4103 O145    36.5542  -1.0630   7.6939   O.3       1 RES1   0.0000
  4104 O145    36.5542  16.7718   7.6939   O.3       1 RES1   0.0000
  4105 O146    36.5542   9.9804   1.2235   O.3       1 RES1   0.0000
  4106 O148    25.8676  -1.0630   1.2235   O.3       1 RES1   0.0000
  4107 O149    25.5287  18.7194  -1.0630   O.3       1 RES1   0.0000
  4108 O149    25.5287  18.7194  16.7718   O.3       1 RES1   0.0000
  4109 O150    19.0583  18.7194   9.9804   O.3       1 RES1   0.0000
  4110 O152    19.0583   8.0328  -1.0630   O.3       1 RES1   0.0000
  4111 O153    37.0696   7.5174   1.4000   O.3       1 RES1   0.0000
  4112 O154    25.3522   1.4000  19.2348   O.3       1 RES1   0.0000
  4113 O154    25.3522  19.2348   1.4000   O.3       1 RES1   0.0000
  4114 O156    37.0696   1.4000   7.5174   O.3       1 RES1   0.0000
  4115 O157    34.2696  10.3174  -1.4000   O.3       1 RES1   0.0000
  4116 O158    28.1522  -1.4000  16.4348   O.3       1 RES1   0.0000
  4117 O158    28.1522  16.4348  -1.4000   O.3       1 RES1   0.0000
  4118 O160    34.2696  -1.4000  10.3174   O.3       1 RES1   0.0000
  4119 Zr3     24.2937   9.1159  26.5403   Zr        1 RES1   0.0000
  4120 Zr7     26.5403   6.4589  26.9507   Zr        1 RES1   0.0000
  4121 Zr8     26.5403   2.4585  35.4711   Zr        1 RES1   0.0000
  4122 Zr10    35.4711   0.2119  24.2937   Zr        1 RES1   0.0000
  4123 Zr11    26.9507   8.7055  24.2937   Zr        1 RES1   0.0000
  4124 Zr13    33.2111   8.7189  35.4577   Zr        1 RES1   0.0000
  4125 Zr14    29.2107   0.1985  35.4577   Zr        1 RES1   0.0000
  4126 Zr15    29.2107   8.7189  26.9641   Zr        1 RES1   0.0000
  4127 Zr16    33.2111   0.1985  26.9641   Zr        1 RES1   0.0000
  4128 Zr17    35.4577  15.3763  26.5537   Zr        1 RES1   0.0000
  4129 Zr19    26.9641  11.3759  26.5537   Zr        1 RES1   0.0000
  4130 Zr21    26.5537  17.6229  33.2111   Zr        1 RES1   0.0000
  4131 Zr23    26.5537   9.1293  29.2107   Zr        1 RES1   0.0000
  4132 O1      21.5623   7.2855  17.9775   O.co2     1 RES1   0.0000
  4133 O2      23.0247   1.6319  17.9775   O.co2     1 RES1   0.0000
  4134 O3      23.0247   7.2855  26.6095   O.co2     1 RES1   0.0000
  4135 O4      21.5623   1.6319  26.6095   O.co2     1 RES1   0.0000
  4136 O5      17.9775   3.7275  25.1203   O.co2     1 RES1   0.0000
  4137 O7      26.6095   5.1899  25.1203   O.co2     1 RES1   0.0000
  4138 O9      25.1203   0.1427  21.5623   O.co2     1 RES1   0.0000
  4139 O11     25.1203   8.7747  23.0247   O.co2     1 RES1   0.0000
  4140 O13     31.9421  10.5493  35.5269   O.co2     1 RES1   0.0000
  4141 O14     30.4797  16.2029  35.5269   O.co2     1 RES1   0.0000
  4142 O15     30.4797  10.5493  26.8949   O.co2     1 RES1   0.0000
  4143 O16     31.9421  16.2029  26.8949   O.co2     1 RES1   0.0000
  4144 O17     35.5269  14.1073  28.3841   O.co2     1 RES1   0.0000
  4145 O18     35.5269  12.6449  34.0377   O.co2     1 RES1   0.0000
  4146 O19     26.8949  12.6449  28.3841   O.co2     1 RES1   0.0000
  4147 O20     26.8949  14.1073  34.0377   O.co2     1 RES1   0.0000
  4148 O21     28.3841  17.6921  31.9421   O.co2     1 RES1   0.0000
  4149 O22     34.0377  17.6921  30.4797   O.co2     1 RES1   0.0000
  4150 O23     28.3841   9.0601  30.4797   O.co2     1 RES1   0.0000
  4151 O24     34.0377   9.0601  31.9421   O.co2     1 RES1   0.0000
  4152 O25     21.2305  11.1396  18.2735   O.co2     1 RES1   0.0000
  4153 O26     23.3565  15.6126  18.2735   O.co2     1 RES1   0.0000
  4154 O27     23.3565  11.1396  26.3135   O.co2     1 RES1   0.0000
  4155 O28     21.2305  15.6126  26.3135   O.co2     1 RES1   0.0000
  4156 O29     18.2735   3.3957  28.9744   O.co2     1 RES1   0.0000
  4157 O30     18.2735   5.5217  33.4474   O.co2     1 RES1   0.0000
  4158 O31     26.3135   5.5217  28.9744   O.co2     1 RES1   0.0000
  4159 O32     26.3135   3.3957  33.4474   O.co2     1 RES1   0.0000
  4160 O33     28.9744   0.4387  21.2305   O.co2     1 RES1   0.0000
  4161 O34     33.4474   0.4387  23.3565   O.co2     1 RES1   0.0000
  4162 O35     28.9744   8.4787  23.3565   O.co2     1 RES1   0.0000
  4163 O36     33.4474   8.4787  21.2305   O.co2     1 RES1   0.0000
  4164 O37     32.2739   6.6952  35.2309   O.co2     1 RES1   0.0000
  4165 O38     30.1479   2.2222  35.2309   O.co2     1 RES1   0.0000
  4166 O39     30.1479   6.6952  27.1909   O.co2     1 RES1   0.0000
  4167 O40     32.2739   2.2222  27.1909   O.co2     1 RES1   0.0000
  4168 O41     35.2309  14.4391  24.5300   O.co2     1 RES1   0.0000
  4169 O42     35.2309  12.3131  20.0570   O.co2     1 RES1   0.0000
  4170 O43     27.1909  12.3131  24.5300   O.co2     1 RES1   0.0000
  4171 O44     27.1909  14.4391  20.0570   O.co2     1 RES1   0.0000
  4172 O45     24.5300  17.3961  32.2739   O.co2     1 RES1   0.0000
  4173 O46     20.0570  17.3961  30.1479   O.co2     1 RES1   0.0000
  4174 O47     24.5300   9.3561  30.1479   O.co2     1 RES1   0.0000
  4175 O48     20.0570   9.3561  32.2739   O.co2     1 RES1   0.0000
  4176 O49     21.2163   9.0476  20.0873   O.co2     1 RES1   0.0000
  4177 O50     23.3707  -0.1302  20.0873   O.co2     1 RES1   0.0000
  4178 O51     23.3707   9.0476  24.4997   O.co2     1 RES1   0.0000
  4179 O52     21.2163  -0.1302  24.4997   O.co2     1 RES1   0.0000
  4180 O53     20.0873   3.3815  26.8824   O.co2     1 RES1   0.0000
  4181 O55     24.4997   5.5359  26.8824   O.co2     1 RES1   0.0000
  4182 O57     26.8824   2.2525  21.2163   O.co2     1 RES1   0.0000
  4183 O59     26.8824   6.6649  23.3707   O.co2     1 RES1   0.0000
  4184 O61     32.2881   8.7872  33.4171   O.co2     1 RES1   0.0000
  4185 O62     30.1337  17.9650  33.4171   O.co2     1 RES1   0.0000
  4186 O63     30.1337   8.7872  29.0047   O.co2     1 RES1   0.0000
  4187 O64     32.2881  17.9650  29.0047   O.co2     1 RES1   0.0000
  4188 O65     33.4171  14.4533  26.6220   O.co2     1 RES1   0.0000
  4189 O66     33.4171  12.2989  35.7998   O.co2     1 RES1   0.0000
  4190 O67     29.0047  12.2989  26.6220   O.co2     1 RES1   0.0000
  4191 O68     29.0047  14.4533  35.7998   O.co2     1 RES1   0.0000
  4192 O69     26.6220  15.5823  32.2881   O.co2     1 RES1   0.0000
  4193 O70     35.7998  15.5823  30.1337   O.co2     1 RES1   0.0000
  4194 O71     26.6220  11.1699  30.1337   O.co2     1 RES1   0.0000
  4195 O72     35.7998  11.1699  32.2881   O.co2     1 RES1   0.0000
  4196 O73     21.5587   9.3437  34.0538   O.co2     1 RES1   0.0000
  4197 O74     23.0283  17.4085  34.0538   O.co2     1 RES1   0.0000
  4198 O75     23.0283   9.3437  28.3680   O.co2     1 RES1   0.0000
  4199 O76     21.5587  17.4085  28.3680   O.co2     1 RES1   0.0000
  4200 O77     34.0538   3.7239  27.1785   O.co2     1 RES1   0.0000
  4201 O78     34.0538   5.1935  35.2433   O.co2     1 RES1   0.0000
  4202 O79     28.3680   5.1935  27.1785   O.co2     1 RES1   0.0000
  4203 O80     28.3680   3.7239  35.2433   O.co2     1 RES1   0.0000
  4204 O81     27.1785  16.2190  21.5587   O.co2     1 RES1   0.0000
  4205 O82     35.2433  16.2190  23.0283   O.co2     1 RES1   0.0000
  4206 O83     27.1785  10.5332  23.0283   O.co2     1 RES1   0.0000
  4207 O84     35.2433  10.5332  21.5587   O.co2     1 RES1   0.0000
  4208 O87     30.4761   8.4911  25.1364   O.co2     1 RES1   0.0000
  4209 O88     31.9457   0.4263  25.1364   O.co2     1 RES1   0.0000
  4210 O91     25.1364  12.6413  26.3259   O.co2     1 RES1   0.0000
  4211 O92     25.1364  14.1109  18.2611   O.co2     1 RES1   0.0000
  4212 O93     26.3259   1.6158  31.9457   O.co2     1 RES1   0.0000
  4213 O94     18.2611   1.6158  30.4761   O.co2     1 RES1   0.0000
  4214 O95     26.3259   7.3016  30.4761   O.co2     1 RES1   0.0000
  4215 O96     18.2611   7.3016  31.9457   O.co2     1 RES1   0.0000
  4216 C1      20.6955  12.2900  18.2628   C.2       1 RES1   0.0000
  4217 C2      23.8915  14.4622  18.2628   C.2       1 RES1   0.0000
  4218 C3      23.8915  12.2900  26.3242   C.2       1 RES1   0.0000
  4219 C4      20.6955  14.4622  26.3242   C.2       1 RES1   0.0000
  4220 C5      18.2628   2.8607  30.1248   C.2       1 RES1   0.0000
  4221 C6      18.2628   6.0567  32.2970   C.2       1 RES1   0.0000
  4222 C7      26.3242   6.0567  30.1248   C.2       1 RES1   0.0000
  4223 C8      26.3242   2.8607  32.2970   C.2       1 RES1   0.0000
  4224 C9      30.1248   0.4280  20.6955   C.2       1 RES1   0.0000
  4225 C10     32.2970   0.4280  23.8915   C.2       1 RES1   0.0000
  4226 C11     30.1248   8.4894  23.8915   C.2       1 RES1   0.0000
  4227 C12     32.2970   8.4894  20.6955   C.2       1 RES1   0.0000
  4228 C13     32.8089   5.5448  35.2416   C.2       1 RES1   0.0000
  4229 C14     29.6129   3.3726  35.2416   C.2       1 RES1   0.0000
  4230 C15     29.6129   5.5448  27.1802   C.2       1 RES1   0.0000
  4231 C16     32.8089   3.3726  27.1802   C.2       1 RES1   0.0000
  4232 C17     35.2416  14.9741  23.3796   C.2       1 RES1   0.0000
  4233 C18     35.2416  11.7781  21.2074   C.2       1 RES1   0.0000
  4234 C19     27.1802  11.7781  23.3796   C.2       1 RES1   0.0000
  4235 C20     27.1802  14.9741  21.2074   C.2       1 RES1   0.0000
  4236 C21     23.3796  17.4068  32.8089   C.2       1 RES1   0.0000
  4237 C22     21.2074  17.4068  29.6129   C.2       1 RES1   0.0000
  4238 C23     23.3796   9.3454  29.6129   C.2       1 RES1   0.0000
  4239 C24     21.2074   9.3454  32.8089   C.2       1 RES1   0.0000
  4240 C25     21.6550  13.4742  18.2682   C.2       1 RES1   0.0000
  4241 C26     22.9320  13.2780  18.2682   C.2       1 RES1   0.0000
  4242 C27     22.9320  13.4742  26.3188   C.2       1 RES1   0.0000
  4243 C28     21.6550  13.2780  26.3188   C.2       1 RES1   0.0000
  4244 C29     18.2682   3.8202  31.3090   C.2       1 RES1   0.0000
  4245 C30     18.2682   5.0972  31.1128   C.2       1 RES1   0.0000
  4246 C31     26.3188   5.0972  31.3090   C.2       1 RES1   0.0000
  4247 C32     26.3188   3.8202  31.1128   C.2       1 RES1   0.0000
  4248 C33     31.3090   0.4334  21.6550   C.2       1 RES1   0.0000
  4249 C34     31.1128   0.4334  22.9320   C.2       1 RES1   0.0000
  4250 C35     31.3090   8.4840  22.9320   C.2       1 RES1   0.0000
  4251 C36     31.1128   8.4840  21.6550   C.2       1 RES1   0.0000
  4252 C37     31.8494   4.3606  35.2362   C.2       1 RES1   0.0000
  4253 C38     30.5724   4.5568  35.2362   C.2       1 RES1   0.0000
  4254 C39     30.5724   4.3606  27.1856   C.2       1 RES1   0.0000
  4255 C40     31.8494   4.5568  27.1856   C.2       1 RES1   0.0000
  4256 C41     35.2362  14.0146  22.1954   C.2       1 RES1   0.0000
  4257 C42     35.2362  12.7376  22.3916   C.2       1 RES1   0.0000
  4258 C43     27.1856  12.7376  22.1954   C.2       1 RES1   0.0000
  4259 C44     27.1856  14.0146  22.3916   C.2       1 RES1   0.0000
  4260 C45     22.1954  17.4014  31.8494   C.2       1 RES1   0.0000
  4261 C46     22.3916  17.4014  30.5724   C.2       1 RES1   0.0000
  4262 C47     22.1954   9.3508  30.5724   C.2       1 RES1   0.0000
  4263 C48     22.3916   9.3508  31.8494   C.2       1 RES1   0.0000
  4264 H1      21.3215  14.3427  18.2700   H         1 RES1   0.0000
  4265 H2      23.2655  12.4095  18.2700   H         1 RES1   0.0000
  4266 H3      23.2655  14.3427  26.3170   H         1 RES1   0.0000
  4267 H4      21.3215  12.4095  26.3170   H         1 RES1   0.0000
  4268 H5      18.2700   3.4867  32.1775   H         1 RES1   0.0000
  4269 H6      18.2700   5.4307  30.2443   H         1 RES1   0.0000
  4270 H7      26.3170   5.4307  32.1775   H         1 RES1   0.0000
  4271 H8      26.3170   3.4867  30.2443   H         1 RES1   0.0000
  4272 H9      32.1775   0.4352  21.3215   H         1 RES1   0.0000
  4273 H10     30.2443   0.4352  23.2655   H         1 RES1   0.0000
  4274 H11     32.1775   8.4822  23.2655   H         1 RES1   0.0000
  4275 H12     30.2443   8.4822  21.3215   H         1 RES1   0.0000
  4276 H13     32.1829   3.4921  35.2344   H         1 RES1   0.0000
  4277 H14     30.2389   5.4253  35.2344   H         1 RES1   0.0000
  4278 H15     30.2389   3.4921  27.1874   H         1 RES1   0.0000
  4279 H16     32.1829   5.4253  27.1874   H         1 RES1   0.0000
  4280 H17     35.2344  14.3481  21.3269   H         1 RES1   0.0000
  4281 H18     35.2344  12.4041  23.2601   H         1 RES1   0.0000
  4282 H19     27.1874  12.4041  21.3269   H         1 RES1   0.0000
  4283 H20     27.1874  14.3481  23.2601   H         1 RES1   0.0000
  4284 H21     21.3269  17.3996  32.1829   H         1 RES1   0.0000
  4285 H22     23.2601  17.3996  30.2389   H         1 RES1   0.0000
  4286 H23     21.3269   9.3526  30.2389   H         1 RES1   0.0000
  4287 H24     23.2601   9.3526  32.1829   H         1 RES1   0.0000
  4288 C49     21.2341   6.0603  17.8348   C.2       1 RES1   0.0000
  4289 C50     23.3529   2.8571  17.8348   C.2       1 RES1   0.0000
  4290 C51     23.3529   6.0603  26.7522   C.2       1 RES1   0.0000
  4291 C52     21.2341   2.8571  26.7522   C.2       1 RES1   0.0000
  4292 C53     17.8348   3.3993  23.8951   C.2       1 RES1   0.0000
  4293 C54     17.8348   5.5181  20.6919   C.2       1 RES1   0.0000
  4294 C55     26.7522   5.5181  23.8951   C.2       1 RES1   0.0000
  4295 C56     26.7522   3.3993  20.6919   C.2       1 RES1   0.0000
  4296 C57     23.8951   0.0000  21.2341   C.2       1 RES1   0.0000
  4297 C58     20.6919   0.0000  23.3529   C.2       1 RES1   0.0000
  4298 C59     23.8951   8.9174  23.3529   C.2       1 RES1   0.0000
  4299 C60     20.6919   8.9174  21.2341   C.2       1 RES1   0.0000
  4300 C61     32.2703  11.7745  35.6696   C.2       1 RES1   0.0000
  4301 C62     30.1515  14.9777  35.6696   C.2       1 RES1   0.0000
  4302 C63     30.1515  11.7745  26.7522   C.2       1 RES1   0.0000
  4303 C64     32.2703  14.9777  26.7522   C.2       1 RES1   0.0000
  4304 C65     35.6696  14.4355  29.6093   C.2       1 RES1   0.0000
  4305 C66     35.6696  12.3167  32.8125   C.2       1 RES1   0.0000
  4306 C67     26.7522  12.3167  29.6093   C.2       1 RES1   0.0000
  4307 C68     26.7522  14.4355  32.8125   C.2       1 RES1   0.0000
  4308 C69     29.6093  17.8348  32.2703   C.2       1 RES1   0.0000
  4309 C70     32.8125  17.8348  30.1515   C.2       1 RES1   0.0000
  4310 C71     29.6093   8.9174  30.1515   C.2       1 RES1   0.0000
  4311 C72     32.8125   8.9174  32.2703   C.2       1 RES1   0.0000
  4312 C73     22.4130   5.1097  17.8366   C.2       1 RES1   0.0000
  4313 C74     22.1740   3.8077  17.8366   C.2       1 RES1   0.0000
  4314 C75     22.1740   5.1097  26.7504   C.2       1 RES1   0.0000
  4315 C76     22.4130   3.8077  26.7504   C.2       1 RES1   0.0000
  4316 C77     17.8366   4.5782  22.9445   C.2       1 RES1   0.0000
  4317 C78     17.8366   4.3392  21.6425   C.2       1 RES1   0.0000
  4318 C79     26.7504   4.3392  22.9445   C.2       1 RES1   0.0000
  4319 C80     26.7504   4.5782  21.6425   C.2       1 RES1   0.0000
  4320 C81     22.9445   0.0018  22.4130   C.2       1 RES1   0.0000
  4321 C82     21.6425   0.0018  22.1740   C.2       1 RES1   0.0000
  4322 C83     22.9445   8.9156  22.1740   C.2       1 RES1   0.0000
  4323 C84     21.6425   8.9156  22.4130   C.2       1 RES1   0.0000
  4324 C85     31.0914  12.7251  35.6678   C.2       1 RES1   0.0000
  4325 C86     31.3304  14.0271  35.6678   C.2       1 RES1   0.0000
  4326 C87     31.3304  12.7251  26.7540   C.2       1 RES1   0.0000
  4327 C88     31.0914  14.0271  26.7540   C.2       1 RES1   0.0000
  4328 C89     35.6678  13.2566  30.5599   C.2       1 RES1   0.0000
  4329 C90     35.6678  13.4956  31.8619   C.2       1 RES1   0.0000
  4330 C91     26.7540  13.4956  30.5599   C.2       1 RES1   0.0000
  4331 C92     26.7540  13.2566  31.8619   C.2       1 RES1   0.0000
  4332 C93     30.5599  17.8330  31.0914   C.2       1 RES1   0.0000
  4333 C94     31.8619  17.8330  31.3304   C.2       1 RES1   0.0000
  4334 C95     30.5599   8.9192  31.3304   C.2       1 RES1   0.0000
  4335 C96     31.8619   8.9192  31.0914   C.2       1 RES1   0.0000
  4336 H25     23.2851   5.4325  17.8366   H         1 RES1   0.0000
  4337 H26     21.3019   3.4849  17.8366   H         1 RES1   0.0000
  4338 H27     21.3019   5.4325  26.7504   H         1 RES1   0.0000
  4339 H28     23.2851   3.4849  26.7504   H         1 RES1   0.0000
  4340 H29     17.8366   5.4503  23.2673   H         1 RES1   0.0000
  4341 H30     17.8366   3.4671  21.3197   H         1 RES1   0.0000
  4342 H31     26.7504   3.4671  23.2673   H         1 RES1   0.0000
  4343 H32     26.7504   5.4503  21.3197   H         1 RES1   0.0000
  4344 H33     23.2673   0.0018  23.2851   H         1 RES1   0.0000
  4345 H34     21.3197   0.0018  21.3019   H         1 RES1   0.0000
  4346 H35     23.2673   8.9156  21.3019   H         1 RES1   0.0000
  4347 H36     21.3197   8.9156  23.2851   H         1 RES1   0.0000
  4348 H37     30.2193  12.4023  35.6678   H         1 RES1   0.0000
  4349 H38     32.2025  14.3499  35.6678   H         1 RES1   0.0000
  4350 H39     32.2025  12.4023  26.7540   H         1 RES1   0.0000
  4351 H40     30.2193  14.3499  26.7540   H         1 RES1   0.0000
  4352 H41     35.6678  12.3845  30.2371   H         1 RES1   0.0000
  4353 H42     35.6678  14.3677  32.1847   H         1 RES1   0.0000
  4354 H43     26.7540  14.3677  30.2371   H         1 RES1   0.0000
  4355 H44     26.7540  12.3845  32.1847   H         1 RES1   0.0000
  4356 H45     30.2371  17.8330  30.2193   H         1 RES1   0.0000
  4357 H46     32.1847  17.8330  32.2025   H         1 RES1   0.0000
  4358 H47     30.2371   8.9192  32.2025   H         1 RES1   0.0000
  4359 H48     32.1847   8.9192  30.2193   H         1 RES1   0.0000
  4360 O98     25.3878  16.1993  34.5157   O.3       1 RES1   0.0000
  4361 O99     25.3878  10.5529  27.9061   O.3       1 RES1   0.0000
  4362 O101    34.5157   1.3644  28.3877   O.3       1 RES1   0.0000
  4363 O102    34.5157   7.5530  34.0341   O.3       1 RES1   0.0000
  4364 O103    27.9061   7.5530  28.3877   O.3       1 RES1   0.0000
  4365 O104    27.9061   1.3644  34.0341   O.3       1 RES1   0.0000
  4366 O105    28.3877  16.6809  19.1992   O.3       1 RES1   0.0000
  4367 O106    34.0341  16.6809  25.3878   O.3       1 RES1   0.0000
  4368 O107    28.3877  10.0713  25.3878   O.3       1 RES1   0.0000
  4369 O111    28.1166   7.2819  25.5983   O.3       1 RES1   0.0000
  4370 O112    34.3052   1.6355  25.5983   O.3       1 RES1   0.0000
  4371 O115    25.5983  10.2818  25.1167   O.3       1 RES1   0.0000
  4372 O116    25.5983  16.4704  19.4703   O.3       1 RES1   0.0000
  4373 O117    25.1167   1.1539  34.3052   O.3       1 RES1   0.0000
  4374 O118    19.4703   1.1539  28.1166   O.3       1 RES1   0.0000
  4375 O119    25.1167   7.7635  28.1166   O.3       1 RES1   0.0000
  4376 O120    19.4703   7.7635  34.3052   O.3       1 RES1   0.0000
  4377 O123    25.6892   7.8544  25.6892   O.3       1 RES1   0.0000
  4378 O125    34.6066   9.9804  34.6066   O.3       1 RES1   0.0000
  4379 O126    27.8152  16.7718  34.6066   O.3       1 RES1   0.0000
  4380 O127    27.8152   9.9804  27.8152   O.3       1 RES1   0.0000
  4381 O128    34.6066  16.7718  27.8152   O.3       1 RES1   0.0000
  4382 O130    25.6892  16.6113  34.7850   O.3       1 RES1   0.0000
  4383 O131    25.6892  10.1409  27.6368   O.3       1 RES1   0.0000
  4384 O133    34.7850   1.0630  27.9757   O.3       1 RES1   0.0000
  4385 O134    34.7850   7.8544  34.4461   O.3       1 RES1   0.0000
  4386 O135    27.6368   7.8544  27.9757   O.3       1 RES1   0.0000
  4387 O136    27.6368   1.0630  34.4461   O.3       1 RES1   0.0000
  4388 O137    27.9757  16.9502  18.8978   O.3       1 RES1   0.0000
  4389 O138    34.4461  16.9502  25.6892   O.3       1 RES1   0.0000
  4390 O139    27.9757   9.8020  25.6892   O.3       1 RES1   0.0000
  4391 O143    27.8152   7.6939  25.8676   O.3       1 RES1   0.0000
  4392 O144    34.6066   1.2235  25.8676   O.3       1 RES1   0.0000
  4393 O147    25.8676   9.9804  25.5287   O.3       1 RES1   0.0000
  4394 O148    25.8676  16.7718  19.0583   O.3       1 RES1   0.0000
  4395 O149    25.5287   0.8846  34.6066   O.3       1 RES1   0.0000
  4396 O150    19.0583   0.8846  27.8152   O.3       1 RES1   0.0000
  4397 O151    25.5287   8.0328  27.8152   O.3       1 RES1   0.0000
  4398 O152    19.0583   8.0328  34.6066   O.3       1 RES1   0.0000
  4399 O155    25.3522   7.5174  25.3522   O.3       1 RES1   0.0000
  4400 O157    34.2696  10.3174  34.2696   O.3       1 RES1   0.0000
  4401 O158    28.1522  16.4348  34.2696   O.3       1 RES1   0.0000
  4402 O159    28.1522  10.3174  28.1522   O.3       1 RES1   0.0000
  4403 O160    34.2696  16.4348  28.1522   O.3       1 RES1   0.0000
  4404 Zr1     38.1281   9.1159  18.0467   Zr        1 RES1   0.0000
  4405 Zr2     24.2937  -0.1985  35.8815   Zr        1 RES1   0.0000
  4406 Zr2     24.2937  17.6363  35.8815   Zr        1 RES1   0.0000
  4407 Zr4     38.1281  -0.1985  26.5403   Zr        1 RES1   0.0000
  4408 Zr4     38.1281  17.6363  26.5403   Zr        1 RES1   0.0000
  4409 Zr5     35.8815   2.4585  26.9507   Zr        1 RES1   0.0000
  4410 Zr6     35.8815   6.4589  35.4711   Zr        1 RES1   0.0000
  4411 Zr8     26.5403  20.2933  35.4711   Zr        1 RES1   0.0000
  4412 Zr9     26.9507   0.2119  38.1281   Zr        1 RES1   0.0000
  4413 Zr9     26.9507  18.0467  20.2933   Zr        1 RES1   0.0000
  4414 Zr10    35.4711  18.0467  24.2937   Zr        1 RES1   0.0000
  4415 Zr12    35.4711   8.7055  38.1281   Zr        1 RES1   0.0000
  4416 Zr14    29.2107  18.0333  35.4577   Zr        1 RES1   0.0000
  4417 Zr16    33.2111  18.0333  26.9641   Zr        1 RES1   0.0000
  4418 Zr17    35.4577  -2.4585  26.5537   Zr        1 RES1   0.0000
  4419 Zr18    35.4577  11.3759  35.8681   Zr        1 RES1   0.0000
  4420 Zr20    26.9641  -2.4585  35.8681   Zr        1 RES1   0.0000
  4421 Zr20    26.9641  15.3763  35.8681   Zr        1 RES1   0.0000
  4422 Zr21    26.5537  -0.2119  33.2111   Zr        1 RES1   0.0000
  4423 Zr22    35.8681  -0.2119  29.2107   Zr        1 RES1   0.0000
  4424 Zr22    35.8681  17.6229  29.2107   Zr        1 RES1   0.0000
  4425 Zr24    35.8681   9.1293  33.2111   Zr        1 RES1   0.0000
  4426 O2      23.0247  19.4667  17.9775   O.co2     1 RES1   0.0000
  4427 O4      21.5623  19.4667  26.6095   O.co2     1 RES1   0.0000
  4428 O6      17.9775   5.1899  37.3015   O.co2     1 RES1   0.0000
  4429 O8      26.6095   3.7275  37.3015   O.co2     1 RES1   0.0000
  4430 O10     37.3015   0.1427  23.0247   O.co2     1 RES1   0.0000
  4431 O12     37.3015   8.7747  21.5623   O.co2     1 RES1   0.0000
  4432 O14     30.4797  -1.6319  35.5269   O.2       1 RES1   0.0000
  4433 O16     31.9421  -1.6319  26.8949   O.2       1 RES1   0.0000
  4434 O50     23.3707  17.7046  20.0873   O.co2     1 RES1   0.0000
  4435 O52     21.2163  17.7046  24.4997   O.co2     1 RES1   0.0000
  4436 O54     20.0873   5.5359  35.5394   O.co2     1 RES1   0.0000
  4437 O56     24.4997   3.3815  35.5394   O.co2     1 RES1   0.0000
  4438 O58     35.5394   2.2525  23.3707   O.co2     1 RES1   0.0000
  4439 O60     35.5394   6.6649  21.2163   O.co2     1 RES1   0.0000
  4440 O62     30.1337   0.1302  33.4171   O.2       1 RES1   0.0000
  4441 O64     32.2881   0.1302  29.0047   O.2       1 RES1   0.0000
  4442 O81     27.1785  -1.6158  21.5587   O.2       1 RES1   0.0000
  4443 O82     35.2433  -1.6158  23.0283   O.2       1 RES1   0.0000
  4444 O85     31.9457   8.4911  37.2854   O.co2     1 RES1   0.0000
  4445 O86     30.4761   0.4263  37.2854   O.co2     1 RES1   0.0000
  4446 O89     37.2854  14.1109  26.3259   O.co2     1 RES1   0.0000
  4447 O90     37.2854  12.6413  18.2611   O.co2     1 RES1   0.0000
  4448 O93     26.3259  19.4506  31.9457   O.co2     1 RES1   0.0000
  4449 O94     18.2611  19.4506  30.4761   O.co2     1 RES1   0.0000
  4450 O97     37.0340  10.5529  16.6809   O.3       1 RES1   0.0000
  4451 O100    37.0340  16.1993  27.9061   O.3       1 RES1   0.0000
  4452 O104    27.9061  19.1992  34.0341   O.3       1 RES1   0.0000
  4453 O105    28.3877  -1.1539  37.0340   O.3       1 RES1   0.0000
  4454 O106    34.0341  -1.1539  25.3878   O.3       1 RES1   0.0000
  4455 O108    34.0341  10.0713  37.0340   O.3       1 RES1   0.0000
  4456 O109    34.3052   7.2819  36.8235   O.3       1 RES1   0.0000
  4457 O110    28.1166   1.6355  36.8235   O.3       1 RES1   0.0000
  4458 O113    36.8235  -1.3644  25.1167   O.3       1 RES1   0.0000
  4459 O113    36.8235  16.4704  25.1167   O.3       1 RES1   0.0000
  4460 O114    36.8235  10.2818  19.4703   O.3       1 RES1   0.0000
  4461 O116    25.5983  -1.3644  19.4703   O.3       1 RES1   0.0000
  4462 O117    25.1167  18.9887  34.3052   O.3       1 RES1   0.0000
  4463 O118    19.4703  18.9887  28.1166   O.3       1 RES1   0.0000
  4464 O121    36.7326   7.8544  18.8978   O.3       1 RES1   0.0000
  4465 O122    25.6892   1.0630  36.7326   O.3       1 RES1   0.0000
  4466 O122    25.6892  18.8978  18.8978   O.3       1 RES1   0.0000
  4467 O124    36.7326   1.0630  25.6892   O.3       1 RES1   0.0000
  4468 O126    27.8152  -1.0630  34.6066   O.3       1 RES1   0.0000
  4469 O128    34.6066  -1.0630  27.8152   O.3       1 RES1   0.0000
  4470 O129    36.7326  10.1409  16.9502   O.3       1 RES1   0.0000
  4471 O132    36.7326  16.6113  27.6368   O.3       1 RES1   0.0000
  4472 O136    27.6368  18.8978  34.4461   O.3       1 RES1   0.0000
  4473 O137    27.9757  -0.8846  36.7326   O.3       1 RES1   0.0000
  4474 O138    34.4461  -0.8846  25.6892   O.3       1 RES1   0.0000
  4475 O140    34.4461   9.8020  36.7326   O.3       1 RES1   0.0000
  4476 O141    34.6066   7.6939  36.5542   O.3       1 RES1   0.0000
  4477 O142    27.8152   1.2235  36.5542   O.3       1 RES1   0.0000
  4478 O145    36.5542  -1.0630  25.5287   O.3       1 RES1   0.0000
  4479 O145    36.5542  16.7718  25.5287   O.3       1 RES1   0.0000
  4480 O146    36.5542   9.9804  19.0583   O.3       1 RES1   0.0000
  4481 O148    25.8676  -1.0630  19.0583   O.3       1 RES1   0.0000
  4482 O149    25.5287  18.7194  34.6066   O.3       1 RES1   0.0000
  4483 O150    19.0583  18.7194  27.8152   O.3       1 RES1   0.0000
  4484 O153    37.0696   7.5174  19.2348   O.3       1 RES1   0.0000
  4485 O154    25.3522   1.4000  37.0696   O.3       1 RES1   0.0000
  4486 O154    25.3522  19.2348  19.2348   O.3       1 RES1   0.0000
  4487 O156    37.0696   1.4000  25.3522   O.3       1 RES1   0.0000
  4488 O158    28.1522  -1.4000  34.2696   O.3       1 RES1   0.0000
  4489 O160    34.2696  -1.4000  28.1522   O.3       1 RES1   0.0000
  4490 Zr3     24.2937   9.1159  44.3751   Zr        1 RES1   0.0000
  4491 Zr7     26.5403   6.4589  44.7855   Zr        1 RES1   0.0000
  4492 Zr8     26.5403   2.4585  53.3059   Zr        1 RES1   0.0000
  4493 Zr10    35.4711   0.2119  42.1285   Zr        1 RES1   0.0000
  4494 Zr11    26.9507   8.7055  42.1285   Zr        1 RES1   0.0000
  4495 Zr13    33.2111   8.7189  53.2925   Zr        1 RES1   0.0000
  4496 Zr14    29.2107   0.1985  53.2925   Zr        1 RES1   0.0000
  4497 Zr15    29.2107   8.7189  44.7989   Zr        1 RES1   0.0000
  4498 Zr16    33.2111   0.1985  44.7989   Zr        1 RES1   0.0000
  4499 Zr17    35.4577  15.3763  44.3885   Zr        1 RES1   0.0000
  4500 Zr19    26.9641  11.3759  44.3885   Zr        1 RES1   0.0000
  4501 Zr21    26.5537  17.6229  51.0459   Zr        1 RES1   0.0000
  4502 Zr23    26.5537   9.1293  47.0455   Zr        1 RES1   0.0000
  4503 O1      21.5623   7.2855  35.8123   O.co2     1 RES1   0.0000
  4504 O2      23.0247   1.6319  35.8123   O.co2     1 RES1   0.0000
  4505 O3      23.0247   7.2855  44.4443   O.co2     1 RES1   0.0000
  4506 O4      21.5623   1.6319  44.4443   O.co2     1 RES1   0.0000
  4507 O5      17.9775   3.7275  42.9551   O.co2     1 RES1   0.0000
  4508 O7      26.6095   5.1899  42.9551   O.co2     1 RES1   0.0000
  4509 O9      25.1203   0.1427  39.3971   O.co2     1 RES1   0.0000
  4510 O11     25.1203   8.7747  40.8595   O.co2     1 RES1   0.0000
  4511 O13     31.9421  10.5493  53.3617   O.co2     1 RES1   0.0000
  4512 O14     30.4797  16.2029  53.3617   O.co2     1 RES1   0.0000
  4513 O15     30.4797  10.5493  44.7297   O.co2     1 RES1   0.0000
  4514 O16     31.9421  16.2029  44.7297   O.co2     1 RES1   0.0000
  4515 O17     35.5269  14.1073  46.2189   O.co2     1 RES1   0.0000
  4516 O18     35.5269  12.6449  51.8725   O.co2     1 RES1   0.0000
  4517 O19     26.8949  12.6449  46.2189   O.co2     1 RES1   0.0000
  4518 O20     26.8949  14.1073  51.8725   O.co2     1 RES1   0.0000
  4519 O21     28.3841  17.6921  49.7769   O.co2     1 RES1   0.0000
  4520 O22     34.0377  17.6921  48.3145   O.co2     1 RES1   0.0000
  4521 O23     28.3841   9.0601  48.3145   O.co2     1 RES1   0.0000
  4522 O24     34.0377   9.0601  49.7769   O.co2     1 RES1   0.0000
  4523 O25     21.2305  11.1396  36.1083   O.co2     1 RES1   0.0000
  4524 O26     23.3565  15.6126  36.1083   O.co2     1 RES1   0.0000
  4525 O27     23.3565  11.1396  44.1483   O.co2     1 RES1   0.0000
  4526 O28     21.2305  15.6126  44.1483   O.co2     1 RES1   0.0000
  4527 O29     18.2735   3.3957  46.8092   O.co2     1 RES1   0.0000
  4528 O30     18.2735   5.5217  51.2822   O.co2     1 RES1   0.0000
  4529 O31     26.3135   5.5217  46.8092   O.co2     1 RES1   0.0000
  4530 O32     26.3135   3.3957  51.2822   O.co2     1 RES1   0.0000
  4531 O33     28.9744   0.4387  39.0653   O.co2     1 RES1   0.0000
  4532 O34     33.4474   0.4387  41.1913   O.co2     1 RES1   0.0000
  4533 O35     28.9744   8.4787  41.1913   O.co2     1 RES1   0.0000
  4534 O36     33.4474   8.4787  39.0653   O.co2     1 RES1   0.0000
  4535 O37     32.2739   6.6952  53.0657   O.co2     1 RES1   0.0000
  4536 O38     30.1479   2.2222  53.0657   O.co2     1 RES1   0.0000
  4537 O39     30.1479   6.6952  45.0257   O.co2     1 RES1   0.0000
  4538 O40     32.2739   2.2222  45.0257   O.co2     1 RES1   0.0000
  4539 O41     35.2309  14.4391  42.3648   O.co2     1 RES1   0.0000
  4540 O42     35.2309  12.3131  37.8918   O.co2     1 RES1   0.0000
  4541 O43     27.1909  12.3131  42.3648   O.co2     1 RES1   0.0000
  4542 O44     27.1909  14.4391  37.8918   O.co2     1 RES1   0.0000
  4543 O45     24.5300  17.3961  50.1087   O.co2     1 RES1   0.0000
  4544 O46     20.0570  17.3961  47.9827   O.co2     1 RES1   0.0000
  4545 O47     24.5300   9.3561  47.9827   O.co2     1 RES1   0.0000
  4546 O48     20.0570   9.3561  50.1087   O.co2     1 RES1   0.0000
  4547 O49     21.2163   9.0476  37.9221   O.co2     1 RES1   0.0000
  4548 O50     23.3707  -0.1302  37.9221   O.co2     1 RES1   0.0000
  4549 O51     23.3707   9.0476  42.3345   O.co2     1 RES1   0.0000
  4550 O52     21.2163  -0.1302  42.3345   O.co2     1 RES1   0.0000
  4551 O53     20.0873   3.3815  44.7172   O.co2     1 RES1   0.0000
  4552 O55     24.4997   5.5359  44.7172   O.co2     1 RES1   0.0000
  4553 O57     26.8824   2.2525  39.0511   O.co2     1 RES1   0.0000
  4554 O59     26.8824   6.6649  41.2055   O.co2     1 RES1   0.0000
  4555 O61     32.2881   8.7872  51.2519   O.co2     1 RES1   0.0000
  4556 O62     30.1337  17.9650  51.2519   O.co2     1 RES1   0.0000
  4557 O63     30.1337   8.7872  46.8395   O.co2     1 RES1   0.0000
  4558 O64     32.2881  17.9650  46.8395   O.co2     1 RES1   0.0000
  4559 O65     33.4171  14.4533  44.4568   O.co2     1 RES1   0.0000
  4560 O66     33.4171  12.2989  53.6346   O.co2     1 RES1   0.0000
  4561 O67     29.0047  12.2989  44.4568   O.co2     1 RES1   0.0000
  4562 O68     29.0047  14.4533  53.6346   O.co2     1 RES1   0.0000
  4563 O69     26.6220  15.5823  50.1229   O.co2     1 RES1   0.0000
  4564 O70     35.7998  15.5823  47.9685   O.co2     1 RES1   0.0000
  4565 O71     26.6220  11.1699  47.9685   O.co2     1 RES1   0.0000
  4566 O72     35.7998  11.1699  50.1229   O.co2     1 RES1   0.0000
  4567 O73     21.5587   9.3437  51.8886   O.co2     1 RES1   0.0000
  4568 O74     23.0283  17.4085  51.8886   O.co2     1 RES1   0.0000
  4569 O75     23.0283   9.3437  46.2028   O.co2     1 RES1   0.0000
  4570 O76     21.5587  17.4085  46.2028   O.co2     1 RES1   0.0000
  4571 O77     34.0538   3.7239  45.0133   O.co2     1 RES1   0.0000
  4572 O78     34.0538   5.1935  53.0781   O.co2     1 RES1   0.0000
  4573 O79     28.3680   5.1935  45.0133   O.co2     1 RES1   0.0000
  4574 O80     28.3680   3.7239  53.0781   O.co2     1 RES1   0.0000
  4575 O81     27.1785  16.2190  39.3935   O.co2     1 RES1   0.0000
  4576 O82     35.2433  16.2190  40.8631   O.co2     1 RES1   0.0000
  4577 O83     27.1785  10.5332  40.8631   O.co2     1 RES1   0.0000
  4578 O84     35.2433  10.5332  39.3935   O.co2     1 RES1   0.0000
  4579 O87     30.4761   8.4911  42.9712   O.co2     1 RES1   0.0000
  4580 O88     31.9457   0.4263  42.9712   O.co2     1 RES1   0.0000
  4581 O91     25.1364  12.6413  44.1607   O.co2     1 RES1   0.0000
  4582 O92     25.1364  14.1109  36.0959   O.co2     1 RES1   0.0000
  4583 O93     26.3259   1.6158  49.7805   O.co2     1 RES1   0.0000
  4584 O94     18.2611   1.6158  48.3109   O.co2     1 RES1   0.0000
  4585 O95     26.3259   7.3016  48.3109   O.co2     1 RES1   0.0000
  4586 O96     18.2611   7.3016  49.7805   O.co2     1 RES1   0.0000
  4587 C1      20.6955  12.2900  36.0976   C.2       1 RES1   0.0000
  4588 C2      23.8915  14.4622  36.0976   C.2       1 RES1   0.0000
  4589 C3      23.8915  12.2900  44.1590   C.2       1 RES1   0.0000
  4590 C4      20.6955  14.4622  44.1590   C.2       1 RES1   0.0000
  4591 C5      18.2628   2.8607  47.9596   C.2       1 RES1   0.0000
  4592 C6      18.2628   6.0567  50.1318   C.2       1 RES1   0.0000
  4593 C7      26.3242   6.0567  47.9596   C.2       1 RES1   0.0000
  4594 C8      26.3242   2.8607  50.1318   C.2       1 RES1   0.0000
  4595 C9      30.1248   0.4280  38.5303   C.2       1 RES1   0.0000
  4596 C10     32.2970   0.4280  41.7263   C.2       1 RES1   0.0000
  4597 C11     30.1248   8.4894  41.7263   C.2       1 RES1   0.0000
  4598 C12     32.2970   8.4894  38.5303   C.2       1 RES1   0.0000
  4599 C13     32.8089   5.5448  53.0764   C.2       1 RES1   0.0000
  4600 C14     29.6129   3.3726  53.0764   C.2       1 RES1   0.0000
  4601 C15     29.6129   5.5448  45.0150   C.2       1 RES1   0.0000
  4602 C16     32.8089   3.3726  45.0150   C.2       1 RES1   0.0000
  4603 C17     35.2416  14.9741  41.2144   C.2       1 RES1   0.0000
  4604 C18     35.2416  11.7781  39.0422   C.2       1 RES1   0.0000
  4605 C19     27.1802  11.7781  41.2144   C.2       1 RES1   0.0000
  4606 C20     27.1802  14.9741  39.0422   C.2       1 RES1   0.0000
  4607 C21     23.3796  17.4068  50.6437   C.2       1 RES1   0.0000
  4608 C22     21.2074  17.4068  47.4477   C.2       1 RES1   0.0000
  4609 C23     23.3796   9.3454  47.4477   C.2       1 RES1   0.0000
  4610 C24     21.2074   9.3454  50.6437   C.2       1 RES1   0.0000
  4611 C25     21.6550  13.4742  36.1030   C.2       1 RES1   0.0000
  4612 C26     22.9320  13.2780  36.1030   C.2       1 RES1   0.0000
  4613 C27     22.9320  13.4742  44.1536   C.2       1 RES1   0.0000
  4614 C28     21.6550  13.2780  44.1536   C.2       1 RES1   0.0000
  4615 C29     18.2682   3.8202  49.1438   C.2       1 RES1   0.0000
  4616 C30     18.2682   5.0972  48.9476   C.2       1 RES1   0.0000
  4617 C31     26.3188   5.0972  49.1438   C.2       1 RES1   0.0000
  4618 C32     26.3188   3.8202  48.9476   C.2       1 RES1   0.0000
  4619 C33     31.3090   0.4334  39.4898   C.2       1 RES1   0.0000
  4620 C34     31.1128   0.4334  40.7668   C.2       1 RES1   0.0000
  4621 C35     31.3090   8.4840  40.7668   C.2       1 RES1   0.0000
  4622 C36     31.1128   8.4840  39.4898   C.2       1 RES1   0.0000
  4623 C37     31.8494   4.3606  53.0710   C.2       1 RES1   0.0000
  4624 C38     30.5724   4.5568  53.0710   C.2       1 RES1   0.0000
  4625 C39     30.5724   4.3606  45.0204   C.2       1 RES1   0.0000
  4626 C40     31.8494   4.5568  45.0204   C.2       1 RES1   0.0000
  4627 C41     35.2362  14.0146  40.0302   C.2       1 RES1   0.0000
  4628 C42     35.2362  12.7376  40.2264   C.2       1 RES1   0.0000
  4629 C43     27.1856  12.7376  40.0302   C.2       1 RES1   0.0000
  4630 C44     27.1856  14.0146  40.2264   C.2       1 RES1   0.0000
  4631 C45     22.1954  17.4014  49.6842   C.2       1 RES1   0.0000
  4632 C46     22.3916  17.4014  48.4072   C.2       1 RES1   0.0000
  4633 C47     22.1954   9.3508  48.4072   C.2       1 RES1   0.0000
  4634 C48     22.3916   9.3508  49.6842   C.2       1 RES1   0.0000
  4635 H1      21.3215  14.3427  36.1048   H         1 RES1   0.0000
  4636 H2      23.2655  12.4095  36.1048   H         1 RES1   0.0000
  4637 H3      23.2655  14.3427  44.1518   H         1 RES1   0.0000
  4638 H4      21.3215  12.4095  44.1518   H         1 RES1   0.0000
  4639 H5      18.2700   3.4867  50.0123   H         1 RES1   0.0000
  4640 H6      18.2700   5.4307  48.0791   H         1 RES1   0.0000
  4641 H7      26.3170   5.4307  50.0123   H         1 RES1   0.0000
  4642 H8      26.3170   3.4867  48.0791   H         1 RES1   0.0000
  4643 H9      32.1775   0.4352  39.1563   H         1 RES1   0.0000
  4644 H10     30.2443   0.4352  41.1003   H         1 RES1   0.0000
  4645 H11     32.1775   8.4822  41.1003   H         1 RES1   0.0000
  4646 H12     30.2443   8.4822  39.1563   H         1 RES1   0.0000
  4647 H13     32.1829   3.4921  53.0692   H         1 RES1   0.0000
  4648 H14     30.2389   5.4253  53.0692   H         1 RES1   0.0000
  4649 H15     30.2389   3.4921  45.0222   H         1 RES1   0.0000
  4650 H16     32.1829   5.4253  45.0222   H         1 RES1   0.0000
  4651 H17     35.2344  14.3481  39.1617   H         1 RES1   0.0000
  4652 H18     35.2344  12.4041  41.0949   H         1 RES1   0.0000
  4653 H19     27.1874  12.4041  39.1617   H         1 RES1   0.0000
  4654 H20     27.1874  14.3481  41.0949   H         1 RES1   0.0000
  4655 H21     21.3269  17.3996  50.0177   H         1 RES1   0.0000
  4656 H22     23.2601  17.3996  48.0737   H         1 RES1   0.0000
  4657 H23     21.3269   9.3526  48.0737   H         1 RES1   0.0000
  4658 H24     23.2601   9.3526  50.0177   H         1 RES1   0.0000
  4659 C49     21.2341   6.0603  35.6696   C.2       1 RES1   0.0000
  4660 C50     23.3529   2.8571  35.6696   C.2       1 RES1   0.0000
  4661 C51     23.3529   6.0603  44.5870   C.2       1 RES1   0.0000
  4662 C52     21.2341   2.8571  44.5870   C.2       1 RES1   0.0000
  4663 C53     17.8348   3.3993  41.7299   C.2       1 RES1   0.0000
  4664 C54     17.8348   5.5181  38.5267   C.2       1 RES1   0.0000
  4665 C55     26.7522   5.5181  41.7299   C.2       1 RES1   0.0000
  4666 C56     26.7522   3.3993  38.5267   C.2       1 RES1   0.0000
  4667 C57     23.8951   0.0000  39.0689   C.2       1 RES1   0.0000
  4668 C58     20.6919   0.0000  41.1877   C.2       1 RES1   0.0000
  4669 C59     23.8951   8.9174  41.1877   C.2       1 RES1   0.0000
  4670 C60     20.6919   8.9174  39.0689   C.2       1 RES1   0.0000
  4671 C61     32.2703  11.7745  53.5044   C.2       1 RES1   0.0000
  4672 C62     30.1515  14.9777  53.5044   C.2       1 RES1   0.0000
  4673 C63     30.1515  11.7745  44.5870   C.2       1 RES1   0.0000
  4674 C64     32.2703  14.9777  44.5870   C.2       1 RES1   0.0000
  4675 C65     35.6696  14.4355  47.4441   C.2       1 RES1   0.0000
  4676 C66     35.6696  12.3167  50.6473   C.2       1 RES1   0.0000
  4677 C67     26.7522  12.3167  47.4441   C.2       1 RES1   0.0000
  4678 C68     26.7522  14.4355  50.6473   C.2       1 RES1   0.0000
  4679 C69     29.6093  17.8348  50.1051   C.2       1 RES1   0.0000
  4680 C70     32.8125  17.8348  47.9863   C.2       1 RES1   0.0000
  4681 C71     29.6093   8.9174  47.9863   C.2       1 RES1   0.0000
  4682 C72     32.8125   8.9174  50.1051   C.2       1 RES1   0.0000
  4683 C73     22.4130   5.1097  35.6714   C.2       1 RES1   0.0000
  4684 C74     22.1740   3.8077  35.6714   C.2       1 RES1   0.0000
  4685 C75     22.1740   5.1097  44.5852   C.2       1 RES1   0.0000
  4686 C76     22.4130   3.8077  44.5852   C.2       1 RES1   0.0000
  4687 C77     17.8366   4.5782  40.7793   C.2       1 RES1   0.0000
  4688 C78     17.8366   4.3392  39.4773   C.2       1 RES1   0.0000
  4689 C79     26.7504   4.3392  40.7793   C.2       1 RES1   0.0000
  4690 C80     26.7504   4.5782  39.4773   C.2       1 RES1   0.0000
  4691 C81     22.9445   0.0018  40.2478   C.2       1 RES1   0.0000
  4692 C82     21.6425   0.0018  40.0088   C.2       1 RES1   0.0000
  4693 C83     22.9445   8.9156  40.0088   C.2       1 RES1   0.0000
  4694 C84     21.6425   8.9156  40.2478   C.2       1 RES1   0.0000
  4695 C85     31.0914  12.7251  53.5026   C.2       1 RES1   0.0000
  4696 C86     31.3304  14.0271  53.5026   C.2       1 RES1   0.0000
  4697 C87     31.3304  12.7251  44.5888   C.2       1 RES1   0.0000
  4698 C88     31.0914  14.0271  44.5888   C.2       1 RES1   0.0000
  4699 C89     35.6678  13.2566  48.3947   C.2       1 RES1   0.0000
  4700 C90     35.6678  13.4956  49.6967   C.2       1 RES1   0.0000
  4701 C91     26.7540  13.4956  48.3947   C.2       1 RES1   0.0000
  4702 C92     26.7540  13.2566  49.6967   C.2       1 RES1   0.0000
  4703 C93     30.5599  17.8330  48.9262   C.2       1 RES1   0.0000
  4704 C94     31.8619  17.8330  49.1652   C.2       1 RES1   0.0000
  4705 C95     30.5599   8.9192  49.1652   C.2       1 RES1   0.0000
  4706 C96     31.8619   8.9192  48.9262   C.2       1 RES1   0.0000
  4707 H25     23.2851   5.4325  35.6714   H         1 RES1   0.0000
  4708 H26     21.3019   3.4849  35.6714   H         1 RES1   0.0000
  4709 H27     21.3019   5.4325  44.5852   H         1 RES1   0.0000
  4710 H28     23.2851   3.4849  44.5852   H         1 RES1   0.0000
  4711 H29     17.8366   5.4503  41.1021   H         1 RES1   0.0000
  4712 H30     17.8366   3.4671  39.1545   H         1 RES1   0.0000
  4713 H31     26.7504   3.4671  41.1021   H         1 RES1   0.0000
  4714 H32     26.7504   5.4503  39.1545   H         1 RES1   0.0000
  4715 H33     23.2673   0.0018  41.1199   H         1 RES1   0.0000
  4716 H34     21.3197   0.0018  39.1367   H         1 RES1   0.0000
  4717 H35     23.2673   8.9156  39.1367   H         1 RES1   0.0000
  4718 H36     21.3197   8.9156  41.1199   H         1 RES1   0.0000
  4719 H37     30.2193  12.4023  53.5026   H         1 RES1   0.0000
  4720 H38     32.2025  14.3499  53.5026   H         1 RES1   0.0000
  4721 H39     32.2025  12.4023  44.5888   H         1 RES1   0.0000
  4722 H40     30.2193  14.3499  44.5888   H         1 RES1   0.0000
  4723 H41     35.6678  12.3845  48.0719   H         1 RES1   0.0000
  4724 H42     35.6678  14.3677  50.0195   H         1 RES1   0.0000
  4725 H43     26.7540  14.3677  48.0719   H         1 RES1   0.0000
  4726 H44     26.7540  12.3845  50.0195   H         1 RES1   0.0000
  4727 H45     30.2371  17.8330  48.0541   H         1 RES1   0.0000
  4728 H46     32.1847  17.8330  50.0373   H         1 RES1   0.0000
  4729 H47     30.2371   8.9192  50.0373   H         1 RES1   0.0000
  4730 H48     32.1847   8.9192  48.0541   H         1 RES1   0.0000
  4731 O97     19.1992  10.5529  52.3505   O.3       1 RES1   0.0000
  4732 O98     25.3878  16.1993  52.3505   O.3       1 RES1   0.0000
  4733 O99     25.3878  10.5529  45.7409   O.3       1 RES1   0.0000
  4734 O101    34.5157   1.3644  46.2225   O.3       1 RES1   0.0000
  4735 O102    34.5157   7.5530  51.8689   O.3       1 RES1   0.0000
  4736 O103    27.9061   7.5530  46.2225   O.3       1 RES1   0.0000
  4737 O104    27.9061   1.3644  51.8689   O.3       1 RES1   0.0000
  4738 O105    28.3877  16.6809  37.0340   O.3       1 RES1   0.0000
  4739 O106    34.0341  16.6809  43.2226   O.3       1 RES1   0.0000
  4740 O107    28.3877  10.0713  43.2226   O.3       1 RES1   0.0000
  4741 O111    28.1166   7.2819  43.4331   O.3       1 RES1   0.0000
  4742 O112    34.3052   1.6355  43.4331   O.3       1 RES1   0.0000
  4743 O115    25.5983  10.2818  42.9515   O.3       1 RES1   0.0000
  4744 O116    25.5983  16.4704  37.3051   O.3       1 RES1   0.0000
  4745 O117    25.1167   1.1539  52.1400   O.3       1 RES1   0.0000
  4746 O118    19.4703   1.1539  45.9514   O.3       1 RES1   0.0000
  4747 O119    25.1167   7.7635  45.9514   O.3       1 RES1   0.0000
  4748 O120    19.4703   7.7635  52.1400   O.3       1 RES1   0.0000
  4749 O123    25.6892   7.8544  43.5240   O.3       1 RES1   0.0000
  4750 O125    34.6066   9.9804  52.4414   O.3       1 RES1   0.0000
  4751 O126    27.8152  16.7718  52.4414   O.3       1 RES1   0.0000
  4752 O127    27.8152   9.9804  45.6500   O.3       1 RES1   0.0000
  4753 O128    34.6066  16.7718  45.6500   O.3       1 RES1   0.0000
  4754 O129    18.8978  10.1409  52.6198   O.3       1 RES1   0.0000
  4755 O130    25.6892  16.6113  52.6198   O.3       1 RES1   0.0000
  4756 O131    25.6892  10.1409  45.4716   O.3       1 RES1   0.0000
  4757 O133    34.7850   1.0630  45.8105   O.3       1 RES1   0.0000
  4758 O134    34.7850   7.8544  52.2809   O.3       1 RES1   0.0000
  4759 O135    27.6368   7.8544  45.8105   O.3       1 RES1   0.0000
  4760 O136    27.6368   1.0630  52.2809   O.3       1 RES1   0.0000
  4761 O137    27.9757  16.9502  36.7326   O.3       1 RES1   0.0000
  4762 O138    34.4461  16.9502  43.5240   O.3       1 RES1   0.0000
  4763 O139    27.9757   9.8020  43.5240   O.3       1 RES1   0.0000
  4764 O143    27.8152   7.6939  43.7024   O.3       1 RES1   0.0000
  4765 O144    34.6066   1.2235  43.7024   O.3       1 RES1   0.0000
  4766 O147    25.8676   9.9804  43.3635   O.3       1 RES1   0.0000
  4767 O148    25.8676  16.7718  36.8931   O.3       1 RES1   0.0000
  4768 O149    25.5287   0.8846  52.4414   O.3       1 RES1   0.0000
  4769 O150    19.0583   0.8846  45.6500   O.3       1 RES1   0.0000
  4770 O151    25.5287   8.0328  45.6500   O.3       1 RES1   0.0000
  4771 O152    19.0583   8.0328  52.4414   O.3       1 RES1   0.0000
  4772 O155    25.3522   7.5174  43.1870   O.3       1 RES1   0.0000
  4773 O157    34.2696  10.3174  52.1044   O.3       1 RES1   0.0000
  4774 O158    28.1522  16.4348  52.1044   O.3       1 RES1   0.0000
  4775 O159    28.1522  10.3174  45.9870   O.3       1 RES1   0.0000
  4776 O160    34.2696  16.4348  45.9870   O.3       1 RES1   0.0000
  4777 Zr1     20.2933   9.1159  53.7163   Zr        1 RES1   0.0000
  4778 Zr1     38.1281   9.1159  35.8815   Zr        1 RES1   0.0000
  4779 Zr2     24.2937  -0.1985  53.7163   Zr        1 RES1   0.0000
  4780 Zr2     24.2937  17.6363  53.7163   Zr        1 RES1   0.0000
  4781 Zr4     38.1281  -0.1985  44.3751   Zr        1 RES1   0.0000
  4782 Zr4     38.1281  17.6363  44.3751   Zr        1 RES1   0.0000
  4783 Zr5     35.8815   2.4585  44.7855   Zr        1 RES1   0.0000
  4784 Zr6     35.8815   6.4589  53.3059   Zr        1 RES1   0.0000
  4785 Zr8     26.5403  20.2933  53.3059   Zr        1 RES1   0.0000
  4786 Zr9     26.9507   0.2119  55.9629   Zr        1 RES1   0.0000
  4787 Zr9     26.9507  18.0467  38.1281   Zr        1 RES1   0.0000
  4788 Zr10    35.4711  18.0467  42.1285   Zr        1 RES1   0.0000
  4789 Zr12    35.4711   8.7055  55.9629   Zr        1 RES1   0.0000
  4790 Zr14    29.2107  18.0333  53.2925   Zr        1 RES1   0.0000
  4791 Zr16    33.2111  18.0333  44.7989   Zr        1 RES1   0.0000
  4792 Zr17    35.4577  -2.4585  44.3885   Zr        1 RES1   0.0000
  4793 Zr18    35.4577  11.3759  53.7029   Zr        1 RES1   0.0000
  4794 Zr20    26.9641  -2.4585  53.7029   Zr        1 RES1   0.0000
  4795 Zr20    26.9641  15.3763  53.7029   Zr        1 RES1   0.0000
  4796 Zr21    26.5537  -0.2119  51.0459   Zr        1 RES1   0.0000
  4797 Zr22    35.8681  -0.2119  47.0455   Zr        1 RES1   0.0000
  4798 Zr22    35.8681  17.6229  47.0455   Zr        1 RES1   0.0000
  4799 Zr24    35.8681   9.1293  51.0459   Zr        1 RES1   0.0000
  4800 O2      23.0247  19.4667  35.8123   O.co2     1 RES1   0.0000
  4801 O4      21.5623  19.4667  44.4443   O.co2     1 RES1   0.0000
  4802 O6      17.9775   5.1899  55.1363   O.2       1 RES1   0.0000
  4803 O8      26.6095   3.7275  55.1363   O.2       1 RES1   0.0000
  4804 O10     37.3015   0.1427  40.8595   O.co2     1 RES1   0.0000
  4805 O12     37.3015   8.7747  39.3971   O.co2     1 RES1   0.0000
  4806 O14     30.4797  -1.6319  53.3617   O.2       1 RES1   0.0000
  4807 O16     31.9421  -1.6319  44.7297   O.2       1 RES1   0.0000
  4808 O50     23.3707  17.7046  37.9221   O.co2     1 RES1   0.0000
  4809 O52     21.2163  17.7046  42.3345   O.co2     1 RES1   0.0000
  4810 O54     20.0873   5.5359  53.3742   O.2       1 RES1   0.0000
  4811 O56     24.4997   3.3815  53.3742   O.2       1 RES1   0.0000
  4812 O58     35.5394   2.2525  41.2055   O.co2     1 RES1   0.0000
  4813 O60     35.5394   6.6649  39.0511   O.co2     1 RES1   0.0000
  4814 O62     30.1337   0.1302  51.2519   O.2       1 RES1   0.0000
  4815 O64     32.2881   0.1302  46.8395   O.2       1 RES1   0.0000
  4816 O81     27.1785  -1.6158  39.3935   O.2       1 RES1   0.0000
  4817 O82     35.2433  -1.6158  40.8631   O.2       1 RES1   0.0000
  4818 O85     31.9457   8.4911  55.1202   O.2       1 RES1   0.0000
  4819 O86     30.4761   0.4263  55.1202   O.2       1 RES1   0.0000
  4820 O89     37.2854  14.1109  44.1607   O.co2     1 RES1   0.0000
  4821 O90     37.2854  12.6413  36.0959   O.co2     1 RES1   0.0000
  4822 O93     26.3259  19.4506  49.7805   O.co2     1 RES1   0.0000
  4823 O94     18.2611  19.4506  48.3109   O.co2     1 RES1   0.0000
  4824 O97     37.0340  10.5529  34.5157   O.3       1 RES1   0.0000
  4825 O100    37.0340  16.1993  45.7409   O.3       1 RES1   0.0000
  4826 O104    27.9061  19.1992  51.8689   O.3       1 RES1   0.0000
  4827 O105    28.3877  -1.1539  54.8688   O.3       1 RES1   0.0000
  4828 O106    34.0341  -1.1539  43.2226   O.3       1 RES1   0.0000
  4829 O108    34.0341  10.0713  54.8688   O.3       1 RES1   0.0000
  4830 O109    34.3052   7.2819  54.6583   O.3       1 RES1   0.0000
  4831 O110    28.1166   1.6355  54.6583   O.3       1 RES1   0.0000
  4832 O113    36.8235  -1.3644  42.9515   O.3       1 RES1   0.0000
  4833 O113    36.8235  16.4704  42.9515   O.3       1 RES1   0.0000
  4834 O114    36.8235  10.2818  37.3051   O.3       1 RES1   0.0000
  4835 O116    25.5983  -1.3644  37.3051   O.3       1 RES1   0.0000
  4836 O117    25.1167  18.9887  52.1400   O.3       1 RES1   0.0000
  4837 O118    19.4703  18.9887  45.9514   O.3       1 RES1   0.0000
  4838 O121    18.8978   7.8544  54.5674   O.3       1 RES1   0.0000
  4839 O121    36.7326   7.8544  36.7326   O.3       1 RES1   0.0000
  4840 O122    25.6892   1.0630  54.5674   O.3       1 RES1   0.0000
  4841 O122    25.6892  18.8978  36.7326   O.3       1 RES1   0.0000
  4842 O124    36.7326   1.0630  43.5240   O.3       1 RES1   0.0000
  4843 O126    27.8152  -1.0630  52.4414   O.3       1 RES1   0.0000
  4844 O128    34.6066  -1.0630  45.6500   O.3       1 RES1   0.0000
  4845 O129    36.7326  10.1409  34.7850   O.3       1 RES1   0.0000
  4846 O132    36.7326  16.6113  45.4716   O.3       1 RES1   0.0000
  4847 O136    27.6368  18.8978  52.2809   O.3       1 RES1   0.0000
  4848 O137    27.9757  -0.8846  54.5674   O.3       1 RES1   0.0000
  4849 O138    34.4461  -0.8846  43.5240   O.3       1 RES1   0.0000
  4850 O140    34.4461   9.8020  54.5674   O.3       1 RES1   0.0000
  4851 O141    34.6066   7.6939  54.3890   O.3       1 RES1   0.0000
  4852 O142    27.8152   1.2235  54.3890   O.3       1 RES1   0.0000
  4853 O145    36.5542  -1.0630  43.3635   O.3       1 RES1   0.0000
  4854 O145    36.5542  16.7718  43.3635   O.3       1 RES1   0.0000
  4855 O146    36.5542   9.9804  36.8931   O.3       1 RES1   0.0000
  4856 O148    25.8676  -1.0630  36.8931   O.3       1 RES1   0.0000
  4857 O149    25.5287  18.7194  52.4414   O.3       1 RES1   0.0000
  4858 O150    19.0583  18.7194  45.6500   O.3       1 RES1   0.0000
  4859 O153    19.2348   7.5174  54.9044   O.3       1 RES1   0.0000
  4860 O153    37.0696   7.5174  37.0696   O.3       1 RES1   0.0000
  4861 O154    25.3522   1.4000  54.9044   O.3       1 RES1   0.0000
  4862 O154    25.3522  19.2348  37.0696   O.3       1 RES1   0.0000
  4863 O156    37.0696   1.4000  43.1870   O.3       1 RES1   0.0000
  4864 O158    28.1522  -1.4000  52.1044   O.3       1 RES1   0.0000
  4865 O160    34.2696  -1.4000  45.9870   O.3       1 RES1   0.0000
  4866 Zr2     24.2937  35.4711   0.2119   Zr        1 RES1   0.0000
  4867 Zr3     24.2937  26.9507   8.7055   Zr        1 RES1   0.0000
  4868 Zr7     26.5403  24.2937   9.1159   Zr        1 RES1   0.0000
  4869 Zr11    26.9507  26.5403   6.4589   Zr        1 RES1   0.0000
  4870 Zr12    35.4711  26.5403   2.4585   Zr        1 RES1   0.0000
  4871 Zr13    33.2111  26.5537  17.6229   Zr        1 RES1   0.0000
  4872 Zr15    29.2107  26.5537   9.1293   Zr        1 RES1   0.0000
  4873 Zr17    35.4577  33.2111   8.7189   Zr        1 RES1   0.0000
  4874 Zr18    35.4577  29.2107   0.1985   Zr        1 RES1   0.0000
  4875 Zr19    26.9641  29.2107   8.7189   Zr        1 RES1   0.0000
  4876 Zr20    26.9641  33.2111   0.1985   Zr        1 RES1   0.0000
  4877 Zr21    26.5537  35.4577  15.3763   Zr        1 RES1   0.0000
  4878 Zr23    26.5537  26.9641  11.3759   Zr        1 RES1   0.0000
  4879 O1      21.5623  25.1203   0.1427   O.co2     1 RES1   0.0000
  4880 O3      23.0247  25.1203   8.7747   O.co2     1 RES1   0.0000
  4881 O5      17.9775  21.5623   7.2855   O.co2     1 RES1   0.0000
  4882 O6      17.9775  23.0247   1.6319   O.co2     1 RES1   0.0000
  4883 O7      26.6095  23.0247   7.2855   O.co2     1 RES1   0.0000
  4884 O8      26.6095  21.5623   1.6319   O.co2     1 RES1   0.0000
  4885 O9      25.1203  17.9775   3.7275   O.co2     1 RES1   0.0000
  4886 O11     25.1203  26.6095   5.1899   O.co2     1 RES1   0.0000
  4887 O13     31.9421  28.3841  17.6921   O.co2     1 RES1   0.0000
  4888 O14     30.4797  34.0377  17.6921   O.co2     1 RES1   0.0000
  4889 O15     30.4797  28.3841   9.0601   O.co2     1 RES1   0.0000
  4890 O16     31.9421  34.0377   9.0601   O.co2     1 RES1   0.0000
  4891 O17     35.5269  31.9421  10.5493   O.co2     1 RES1   0.0000
  4892 O18     35.5269  30.4797  16.2029   O.co2     1 RES1   0.0000
  4893 O19     26.8949  30.4797  10.5493   O.co2     1 RES1   0.0000
  4894 O20     26.8949  31.9421  16.2029   O.co2     1 RES1   0.0000
  4895 O21     28.3841  35.5269  14.1073   O.co2     1 RES1   0.0000
  4896 O22     34.0377  35.5269  12.6449   O.co2     1 RES1   0.0000
  4897 O23     28.3841  26.8949  12.6449   O.co2     1 RES1   0.0000
  4898 O24     34.0377  26.8949  14.1073   O.co2     1 RES1   0.0000
  4899 O25     21.2305  28.9744   0.4387   O.co2     1 RES1   0.0000
  4900 O26     23.3565  33.4474   0.4387   O.co2     1 RES1   0.0000
  4901 O27     23.3565  28.9744   8.4787   O.co2     1 RES1   0.0000
  4902 O28     21.2305  33.4474   8.4787   O.co2     1 RES1   0.0000
  4903 O29     18.2735  21.2305  11.1396   O.co2     1 RES1   0.0000
  4904 O30     18.2735  23.3565  15.6126   O.co2     1 RES1   0.0000
  4905 O31     26.3135  23.3565  11.1396   O.co2     1 RES1   0.0000
  4906 O32     26.3135  21.2305  15.6126   O.co2     1 RES1   0.0000
  4907 O33     28.9744  18.2735   3.3957   O.co2     1 RES1   0.0000
  4908 O34     33.4474  18.2735   5.5217   O.co2     1 RES1   0.0000
  4909 O35     28.9744  26.3135   5.5217   O.co2     1 RES1   0.0000
  4910 O36     33.4474  26.3135   3.3957   O.co2     1 RES1   0.0000
  4911 O37     32.2739  24.5300  17.3961   O.co2     1 RES1   0.0000
  4912 O38     30.1479  20.0570  17.3961   O.co2     1 RES1   0.0000
  4913 O39     30.1479  24.5300   9.3561   O.co2     1 RES1   0.0000
  4914 O40     32.2739  20.0570   9.3561   O.co2     1 RES1   0.0000
  4915 O41     35.2309  32.2739   6.6952   O.co2     1 RES1   0.0000
  4916 O42     35.2309  30.1479   2.2222   O.co2     1 RES1   0.0000
  4917 O43     27.1909  30.1479   6.6952   O.co2     1 RES1   0.0000
  4918 O44     27.1909  32.2739   2.2222   O.co2     1 RES1   0.0000
  4919 O45     24.5300  35.2309  14.4391   O.co2     1 RES1   0.0000
  4920 O46     20.0570  35.2309  12.3131   O.co2     1 RES1   0.0000
  4921 O47     24.5300  27.1909  12.3131   O.co2     1 RES1   0.0000
  4922 O48     20.0570  27.1909  14.4391   O.co2     1 RES1   0.0000
  4923 O49     21.2163  26.8824   2.2525   O.co2     1 RES1   0.0000
  4924 O51     23.3707  26.8824   6.6649   O.co2     1 RES1   0.0000
  4925 O53     20.0873  21.2163   9.0476   O.co2     1 RES1   0.0000
  4926 O54     20.0873  23.3707  -0.1302   O.co2     1 RES1   0.0000
  4927 O55     24.4997  23.3707   9.0476   O.co2     1 RES1   0.0000
  4928 O56     24.4997  21.2163  -0.1302   O.co2     1 RES1   0.0000
  4929 O57     26.8824  20.0873   3.3815   O.co2     1 RES1   0.0000
  4930 O59     26.8824  24.4997   5.5359   O.co2     1 RES1   0.0000
  4931 O61     32.2881  26.6220  15.5823   O.co2     1 RES1   0.0000
  4932 O62     30.1337  35.7998  15.5823   O.co2     1 RES1   0.0000
  4933 O63     30.1337  26.6220  11.1699   O.co2     1 RES1   0.0000
  4934 O64     32.2881  35.7998  11.1699   O.co2     1 RES1   0.0000
  4935 O65     33.4171  32.2881   8.7872   O.co2     1 RES1   0.0000
  4936 O66     33.4171  30.1337  17.9650   O.co2     1 RES1   0.0000
  4937 O67     29.0047  30.1337   8.7872   O.co2     1 RES1   0.0000
  4938 O68     29.0047  32.2881  17.9650   O.co2     1 RES1   0.0000
  4939 O69     26.6220  33.4171  14.4533   O.co2     1 RES1   0.0000
  4940 O70     35.7998  33.4171  12.2989   O.co2     1 RES1   0.0000
  4941 O71     26.6220  29.0047  12.2989   O.co2     1 RES1   0.0000
  4942 O72     35.7998  29.0047  14.4533   O.co2     1 RES1   0.0000
  4943 O73     21.5587  27.1785  16.2190   O.co2     1 RES1   0.0000
  4944 O74     23.0283  35.2433  16.2190   O.co2     1 RES1   0.0000
  4945 O75     23.0283  27.1785  10.5332   O.co2     1 RES1   0.0000
  4946 O76     21.5587  35.2433  10.5332   O.co2     1 RES1   0.0000
  4947 O77     34.0538  21.5587   9.3437   O.co2     1 RES1   0.0000
  4948 O78     34.0538  23.0283  17.4085   O.co2     1 RES1   0.0000
  4949 O79     28.3680  23.0283   9.3437   O.co2     1 RES1   0.0000
  4950 O80     28.3680  21.5587  17.4085   O.co2     1 RES1   0.0000
  4951 O81     27.1785  34.0538   3.7239   O.co2     1 RES1   0.0000
  4952 O82     35.2433  34.0538   5.1935   O.co2     1 RES1   0.0000
  4953 O83     27.1785  28.3680   5.1935   O.co2     1 RES1   0.0000
  4954 O84     35.2433  28.3680   3.7239   O.co2     1 RES1   0.0000
  4955 O85     31.9457  26.3259   1.6158   O.co2     1 RES1   0.0000
  4956 O86     30.4761  18.2611   1.6158   O.co2     1 RES1   0.0000
  4957 O87     30.4761  26.3259   7.3016   O.co2     1 RES1   0.0000
  4958 O88     31.9457  18.2611   7.3016   O.co2     1 RES1   0.0000
  4959 O91     25.1364  30.4761   8.4911   O.co2     1 RES1   0.0000
  4960 O92     25.1364  31.9457   0.4263   O.co2     1 RES1   0.0000
  4961 O95     26.3259  25.1364  12.6413   O.co2     1 RES1   0.0000
  4962 O96     18.2611  25.1364  14.1109   O.co2     1 RES1   0.0000
  4963 C1      20.6955  30.1248   0.4280   C.2       1 RES1   0.0000
  4964 C2      23.8915  32.2970   0.4280   C.2       1 RES1   0.0000
  4965 C3      23.8915  30.1248   8.4894   C.2       1 RES1   0.0000
  4966 C4      20.6955  32.2970   8.4894   C.2       1 RES1   0.0000
  4967 C5      18.2628  20.6955  12.2900   C.2       1 RES1   0.0000
  4968 C6      18.2628  23.8915  14.4622   C.2       1 RES1   0.0000
  4969 C7      26.3242  23.8915  12.2900   C.2       1 RES1   0.0000
  4970 C8      26.3242  20.6955  14.4622   C.2       1 RES1   0.0000
  4971 C9      30.1248  18.2628   2.8607   C.2       1 RES1   0.0000
  4972 C10     32.2970  18.2628   6.0567   C.2       1 RES1   0.0000
  4973 C11     30.1248  26.3242   6.0567   C.2       1 RES1   0.0000
  4974 C12     32.2970  26.3242   2.8607   C.2       1 RES1   0.0000
  4975 C13     32.8089  23.3796  17.4068   C.2       1 RES1   0.0000
  4976 C14     29.6129  21.2074  17.4068   C.2       1 RES1   0.0000
  4977 C15     29.6129  23.3796   9.3454   C.2       1 RES1   0.0000
  4978 C16     32.8089  21.2074   9.3454   C.2       1 RES1   0.0000
  4979 C17     35.2416  32.8089   5.5448   C.2       1 RES1   0.0000
  4980 C18     35.2416  29.6129   3.3726   C.2       1 RES1   0.0000
  4981 C19     27.1802  29.6129   5.5448   C.2       1 RES1   0.0000
  4982 C20     27.1802  32.8089   3.3726   C.2       1 RES1   0.0000
  4983 C21     23.3796  35.2416  14.9741   C.2       1 RES1   0.0000
  4984 C22     21.2074  35.2416  11.7781   C.2       1 RES1   0.0000
  4985 C23     23.3796  27.1802  11.7781   C.2       1 RES1   0.0000
  4986 C24     21.2074  27.1802  14.9741   C.2       1 RES1   0.0000
  4987 C25     21.6550  31.3090   0.4334   C.2       1 RES1   0.0000
  4988 C26     22.9320  31.1128   0.4334   C.2       1 RES1   0.0000
  4989 C27     22.9320  31.3090   8.4840   C.2       1 RES1   0.0000
  4990 C28     21.6550  31.1128   8.4840   C.2       1 RES1   0.0000
  4991 C29     18.2682  21.6550  13.4742   C.2       1 RES1   0.0000
  4992 C30     18.2682  22.9320  13.2780   C.2       1 RES1   0.0000
  4993 C31     26.3188  22.9320  13.4742   C.2       1 RES1   0.0000
  4994 C32     26.3188  21.6550  13.2780   C.2       1 RES1   0.0000
  4995 C33     31.3090  18.2682   3.8202   C.2       1 RES1   0.0000
  4996 C34     31.1128  18.2682   5.0972   C.2       1 RES1   0.0000
  4997 C35     31.3090  26.3188   5.0972   C.2       1 RES1   0.0000
  4998 C36     31.1128  26.3188   3.8202   C.2       1 RES1   0.0000
  4999 C37     31.8494  22.1954  17.4014   C.2       1 RES1   0.0000
  5000 C38     30.5724  22.3916  17.4014   C.2       1 RES1   0.0000
  5001 C39     30.5724  22.1954   9.3508   C.2       1 RES1   0.0000
  5002 C40     31.8494  22.3916   9.3508   C.2       1 RES1   0.0000
  5003 C41     35.2362  31.8494   4.3606   C.2       1 RES1   0.0000
  5004 C42     35.2362  30.5724   4.5568   C.2       1 RES1   0.0000
  5005 C43     27.1856  30.5724   4.3606   C.2       1 RES1   0.0000
  5006 C44     27.1856  31.8494   4.5568   C.2       1 RES1   0.0000
  5007 C45     22.1954  35.2362  14.0146   C.2       1 RES1   0.0000
  5008 C46     22.3916  35.2362  12.7376   C.2       1 RES1   0.0000
  5009 C47     22.1954  27.1856  12.7376   C.2       1 RES1   0.0000
  5010 C48     22.3916  27.1856  14.0146   C.2       1 RES1   0.0000
  5011 H1      21.3215  32.1775   0.4352   H         1 RES1   0.0000
  5012 H2      23.2655  30.2443   0.4352   H         1 RES1   0.0000
  5013 H3      23.2655  32.1775   8.4822   H         1 RES1   0.0000
  5014 H4      21.3215  30.2443   8.4822   H         1 RES1   0.0000
  5015 H5      18.2700  21.3215  14.3427   H         1 RES1   0.0000
  5016 H6      18.2700  23.2655  12.4095   H         1 RES1   0.0000
  5017 H7      26.3170  23.2655  14.3427   H         1 RES1   0.0000
  5018 H8      26.3170  21.3215  12.4095   H         1 RES1   0.0000
  5019 H9      32.1775  18.2700   3.4867   H         1 RES1   0.0000
  5020 H10     30.2443  18.2700   5.4307   H         1 RES1   0.0000
  5021 H11     32.1775  26.3170   5.4307   H         1 RES1   0.0000
  5022 H12     30.2443  26.3170   3.4867   H         1 RES1   0.0000
  5023 H13     32.1829  21.3269  17.3996   H         1 RES1   0.0000
  5024 H14     30.2389  23.2601  17.3996   H         1 RES1   0.0000
  5025 H15     30.2389  21.3269   9.3526   H         1 RES1   0.0000
  5026 H16     32.1829  23.2601   9.3526   H         1 RES1   0.0000
  5027 H17     35.2344  32.1829   3.4921   H         1 RES1   0.0000
  5028 H18     35.2344  30.2389   5.4253   H         1 RES1   0.0000
  5029 H19     27.1874  30.2389   3.4921   H         1 RES1   0.0000
  5030 H20     27.1874  32.1829   5.4253   H         1 RES1   0.0000
  5031 H21     21.3269  35.2344  14.3481   H         1 RES1   0.0000
  5032 H22     23.2601  35.2344  12.4041   H         1 RES1   0.0000
  5033 H23     21.3269  27.1874  12.4041   H         1 RES1   0.0000
  5034 H24     23.2601  27.1874  14.3481   H         1 RES1   0.0000
  5035 C49     21.2341  23.8951   0.0000   C.2       1 RES1   0.0000
  5036 C50     23.3529  20.6919   0.0000   C.2       1 RES1   0.0000
  5037 C51     23.3529  23.8951   8.9174   C.2       1 RES1   0.0000
  5038 C52     21.2341  20.6919   8.9174   C.2       1 RES1   0.0000
  5039 C53     17.8348  21.2341   6.0603   C.2       1 RES1   0.0000
  5040 C54     17.8348  23.3529   2.8571   C.2       1 RES1   0.0000
  5041 C55     26.7522  23.3529   6.0603   C.2       1 RES1   0.0000
  5042 C56     26.7522  21.2341   2.8571   C.2       1 RES1   0.0000
  5043 C57     23.8951  17.8348   3.3993   C.2       1 RES1   0.0000
  5044 C58     20.6919  17.8348   5.5181   C.2       1 RES1   0.0000
  5045 C59     23.8951  26.7522   5.5181   C.2       1 RES1   0.0000
  5046 C60     20.6919  26.7522   3.3993   C.2       1 RES1   0.0000
  5047 C61     32.2703  29.6093  17.8348   C.2       1 RES1   0.0000
  5048 C62     30.1515  32.8125  17.8348   C.2       1 RES1   0.0000
  5049 C63     30.1515  29.6093   8.9174   C.2       1 RES1   0.0000
  5050 C64     32.2703  32.8125   8.9174   C.2       1 RES1   0.0000
  5051 C65     35.6696  32.2703  11.7745   C.2       1 RES1   0.0000
  5052 C66     35.6696  30.1515  14.9777   C.2       1 RES1   0.0000
  5053 C67     26.7522  30.1515  11.7745   C.2       1 RES1   0.0000
  5054 C68     26.7522  32.2703  14.9777   C.2       1 RES1   0.0000
  5055 C69     29.6093  35.6696  14.4355   C.2       1 RES1   0.0000
  5056 C70     32.8125  35.6696  12.3167   C.2       1 RES1   0.0000
  5057 C71     29.6093  26.7522  12.3167   C.2       1 RES1   0.0000
  5058 C72     32.8125  26.7522  14.4355   C.2       1 RES1   0.0000
  5059 C73     22.4130  22.9445   0.0018   C.2       1 RES1   0.0000
  5060 C74     22.1740  21.6425   0.0018   C.2       1 RES1   0.0000
  5061 C75     22.1740  22.9445   8.9156   C.2       1 RES1   0.0000
  5062 C76     22.4130  21.6425   8.9156   C.2       1 RES1   0.0000
  5063 C77     17.8366  22.4130   5.1097   C.2       1 RES1   0.0000
  5064 C78     17.8366  22.1740   3.8077   C.2       1 RES1   0.0000
  5065 C79     26.7504  22.1740   5.1097   C.2       1 RES1   0.0000
  5066 C80     26.7504  22.4130   3.8077   C.2       1 RES1   0.0000
  5067 C81     22.9445  17.8366   4.5782   C.2       1 RES1   0.0000
  5068 C82     21.6425  17.8366   4.3392   C.2       1 RES1   0.0000
  5069 C83     22.9445  26.7504   4.3392   C.2       1 RES1   0.0000
  5070 C84     21.6425  26.7504   4.5782   C.2       1 RES1   0.0000
  5071 C85     31.0914  30.5599  17.8330   C.2       1 RES1   0.0000
  5072 C86     31.3304  31.8619  17.8330   C.2       1 RES1   0.0000
  5073 C87     31.3304  30.5599   8.9192   C.2       1 RES1   0.0000
  5074 C88     31.0914  31.8619   8.9192   C.2       1 RES1   0.0000
  5075 C89     35.6678  31.0914  12.7251   C.2       1 RES1   0.0000
  5076 C90     35.6678  31.3304  14.0271   C.2       1 RES1   0.0000
  5077 C91     26.7540  31.3304  12.7251   C.2       1 RES1   0.0000
  5078 C92     26.7540  31.0914  14.0271   C.2       1 RES1   0.0000
  5079 C93     30.5599  35.6678  13.2566   C.2       1 RES1   0.0000
  5080 C94     31.8619  35.6678  13.4956   C.2       1 RES1   0.0000
  5081 C95     30.5599  26.7540  13.4956   C.2       1 RES1   0.0000
  5082 C96     31.8619  26.7540  13.2566   C.2       1 RES1   0.0000
  5083 H25     23.2851  23.2673   0.0018   H         1 RES1   0.0000
  5084 H26     21.3019  21.3197   0.0018   H         1 RES1   0.0000
  5085 H27     21.3019  23.2673   8.9156   H         1 RES1   0.0000
  5086 H28     23.2851  21.3197   8.9156   H         1 RES1   0.0000
  5087 H29     17.8366  23.2851   5.4325   H         1 RES1   0.0000
  5088 H30     17.8366  21.3019   3.4849   H         1 RES1   0.0000
  5089 H31     26.7504  21.3019   5.4325   H         1 RES1   0.0000
  5090 H32     26.7504  23.2851   3.4849   H         1 RES1   0.0000
  5091 H33     23.2673  17.8366   5.4503   H         1 RES1   0.0000
  5092 H34     21.3197  17.8366   3.4671   H         1 RES1   0.0000
  5093 H35     23.2673  26.7504   3.4671   H         1 RES1   0.0000
  5094 H36     21.3197  26.7504   5.4503   H         1 RES1   0.0000
  5095 H37     30.2193  30.2371  17.8330   H         1 RES1   0.0000
  5096 H38     32.2025  32.1847  17.8330   H         1 RES1   0.0000
  5097 H39     32.2025  30.2371   8.9192   H         1 RES1   0.0000
  5098 H40     30.2193  32.1847   8.9192   H         1 RES1   0.0000
  5099 H41     35.6678  30.2193  12.4023   H         1 RES1   0.0000
  5100 H42     35.6678  32.2025  14.3499   H         1 RES1   0.0000
  5101 H43     26.7540  32.2025  12.4023   H         1 RES1   0.0000
  5102 H44     26.7540  30.2193  14.3499   H         1 RES1   0.0000
  5103 H45     30.2371  35.6678  12.3845   H         1 RES1   0.0000
  5104 H46     32.1847  35.6678  14.3677   H         1 RES1   0.0000
  5105 H47     30.2371  26.7540  14.3677   H         1 RES1   0.0000
  5106 H48     32.1847  26.7540  12.3845   H         1 RES1   0.0000
  5107 O98     25.3878  34.0341  16.6809   O.3       1 RES1   0.0000
  5108 O99     25.3878  28.3877  10.0713   O.3       1 RES1   0.0000
  5109 O101    34.5157  19.1992  10.5529   O.3       1 RES1   0.0000
  5110 O102    34.5157  25.3878  16.1993   O.3       1 RES1   0.0000
  5111 O103    27.9061  25.3878  10.5529   O.3       1 RES1   0.0000
  5112 O105    28.3877  34.5157   1.3644   O.3       1 RES1   0.0000
  5113 O106    34.0341  34.5157   7.5530   O.3       1 RES1   0.0000
  5114 O107    28.3877  27.9061   7.5530   O.3       1 RES1   0.0000
  5115 O108    34.0341  27.9061   1.3644   O.3       1 RES1   0.0000
  5116 O109    34.3052  25.1167   1.1539   O.3       1 RES1   0.0000
  5117 O110    28.1166  19.4703   1.1539   O.3       1 RES1   0.0000
  5118 O111    28.1166  25.1167   7.7635   O.3       1 RES1   0.0000
  5119 O112    34.3052  19.4703   7.7635   O.3       1 RES1   0.0000
  5120 O115    25.5983  28.1166   7.2819   O.3       1 RES1   0.0000
  5121 O116    25.5983  34.3052   1.6355   O.3       1 RES1   0.0000
  5122 O119    25.1167  25.5983  10.2818   O.3       1 RES1   0.0000
  5123 O120    19.4703  25.5983  16.4704   O.3       1 RES1   0.0000
  5124 O123    25.6892  25.6892   7.8544   O.3       1 RES1   0.0000
  5125 O125    34.6066  27.8152  16.7718   O.3       1 RES1   0.0000
  5126 O126    27.8152  34.6066  16.7718   O.3       1 RES1   0.0000
  5127 O127    27.8152  27.8152   9.9804   O.3       1 RES1   0.0000
  5128 O128    34.6066  34.6066   9.9804   O.3       1 RES1   0.0000
  5129 O130    25.6892  34.4461  16.9502   O.3       1 RES1   0.0000
  5130 O131    25.6892  27.9757   9.8020   O.3       1 RES1   0.0000
  5131 O133    34.7850  18.8978  10.1409   O.3       1 RES1   0.0000
  5132 O134    34.7850  25.6892  16.6113   O.3       1 RES1   0.0000
  5133 O135    27.6368  25.6892  10.1409   O.3       1 RES1   0.0000
  5134 O137    27.9757  34.7850   1.0630   O.3       1 RES1   0.0000
  5135 O138    34.4461  34.7850   7.8544   O.3       1 RES1   0.0000
  5136 O139    27.9757  27.6368   7.8544   O.3       1 RES1   0.0000
  5137 O140    34.4461  27.6368   1.0630   O.3       1 RES1   0.0000
  5138 O141    34.6066  25.5287   0.8846   O.3       1 RES1   0.0000
  5139 O142    27.8152  19.0583   0.8846   O.3       1 RES1   0.0000
  5140 O143    27.8152  25.5287   8.0328   O.3       1 RES1   0.0000
  5141 O144    34.6066  19.0583   8.0328   O.3       1 RES1   0.0000
  5142 O147    25.8676  27.8152   7.6939   O.3       1 RES1   0.0000
  5143 O148    25.8676  34.6066   1.2235   O.3       1 RES1   0.0000
  5144 O151    25.5287  25.8676   9.9804   O.3       1 RES1   0.0000
  5145 O152    19.0583  25.8676  16.7718   O.3       1 RES1   0.0000
  5146 O155    25.3522  25.3522   7.5174   O.3       1 RES1   0.0000
  5147 O157    34.2696  28.1522  16.4348   O.3       1 RES1   0.0000
  5148 O158    28.1522  34.2696  16.4348   O.3       1 RES1   0.0000
  5149 O159    28.1522  28.1522  10.3174   O.3       1 RES1   0.0000
  5150 O160    34.2696  34.2696  10.3174   O.3       1 RES1   0.0000
  5151 Zr1     38.1281  26.9507   0.2119   Zr        1 RES1   0.0000
  5152 Zr2     24.2937  35.4711  18.0467   Zr        1 RES1   0.0000
  5153 Zr4     38.1281  35.4711   8.7055   Zr        1 RES1   0.0000
  5154 Zr5     35.8815  20.2933   9.1159   Zr        1 RES1   0.0000
  5155 Zr6     35.8815  24.2937  -0.1985   Zr        1 RES1   0.0000
  5156 Zr6     35.8815  24.2937  17.6363   Zr        1 RES1   0.0000
  5157 Zr8     26.5403  38.1281  -0.1985   Zr        1 RES1   0.0000
  5158 Zr8     26.5403  38.1281  17.6363   Zr        1 RES1   0.0000
  5159 Zr9     26.9507  35.8815   2.4585   Zr        1 RES1   0.0000
  5160 Zr10    35.4711  35.8815   6.4589   Zr        1 RES1   0.0000
  5161 Zr12    35.4711  26.5403  20.2933   Zr        1 RES1   0.0000
  5162 Zr13    33.2111  26.5537  -0.2119   Zr        1 RES1   0.0000
  5163 Zr14    29.2107  35.8681  -0.2119   Zr        1 RES1   0.0000
  5164 Zr14    29.2107  35.8681  17.6229   Zr        1 RES1   0.0000
  5165 Zr16    33.2111  35.8681   9.1293   Zr        1 RES1   0.0000
  5166 Zr18    35.4577  29.2107  18.0333   Zr        1 RES1   0.0000
  5167 Zr20    26.9641  33.2111  18.0333   Zr        1 RES1   0.0000
  5168 Zr21    26.5537  35.4577  -2.4585   Zr        1 RES1   0.0000
  5169 Zr22    35.8681  35.4577  11.3759   Zr        1 RES1   0.0000
  5170 Zr24    35.8681  26.9641  -2.4585   Zr        1 RES1   0.0000
  5171 Zr24    35.8681  26.9641  15.3763   Zr        1 RES1   0.0000
  5172 O2      23.0247  37.3015   0.1427   O.co2     1 RES1   0.0000
  5173 O4      21.5623  37.3015   8.7747   O.co2     1 RES1   0.0000
  5174 O6      17.9775  23.0247  19.4667   O.co2     1 RES1   0.0000
  5175 O8      26.6095  21.5623  19.4667   O.co2     1 RES1   0.0000
  5176 O10     37.3015  17.9775   5.1899   O.co2     1 RES1   0.0000
  5177 O12     37.3015  26.6095   3.7275   O.co2     1 RES1   0.0000
  5178 O18     35.5269  30.4797  -1.6319   O.2       1 RES1   0.0000
  5179 O20     26.8949  31.9421  -1.6319   O.2       1 RES1   0.0000
  5180 O50     23.3707  35.5394   2.2525   O.co2     1 RES1   0.0000
  5181 O52     21.2163  35.5394   6.6649   O.co2     1 RES1   0.0000
  5182 O54     20.0873  23.3707  17.7046   O.co2     1 RES1   0.0000
  5183 O56     24.4997  21.2163  17.7046   O.co2     1 RES1   0.0000
  5184 O58     35.5394  20.0873   5.5359   O.co2     1 RES1   0.0000
  5185 O60     35.5394  24.4997   3.3815   O.co2     1 RES1   0.0000
  5186 O66     33.4171  30.1337   0.1302   O.2       1 RES1   0.0000
  5187 O68     29.0047  32.2881   0.1302   O.2       1 RES1   0.0000
  5188 O73     21.5587  27.1785  -1.6158   O.2       1 RES1   0.0000
  5189 O74     23.0283  35.2433  -1.6158   O.2       1 RES1   0.0000
  5190 O85     31.9457  26.3259  19.4506   O.co2     1 RES1   0.0000
  5191 O86     30.4761  18.2611  19.4506   O.co2     1 RES1   0.0000
  5192 O89     37.2854  31.9457   8.4911   O.co2     1 RES1   0.0000
  5193 O90     37.2854  30.4761   0.4263   O.co2     1 RES1   0.0000
  5194 O93     26.3259  37.2854  14.1109   O.co2     1 RES1   0.0000
  5195 O94     18.2611  37.2854  12.6413   O.co2     1 RES1   0.0000
  5196 O97     37.0340  28.3877  -1.1539   O.3       1 RES1   0.0000
  5197 O98     25.3878  34.0341  -1.1539   O.3       1 RES1   0.0000
  5198 O100    37.0340  34.0341  10.0713   O.3       1 RES1   0.0000
  5199 O104    27.9061  37.0340  16.1993   O.3       1 RES1   0.0000
  5200 O108    34.0341  27.9061  19.1992   O.3       1 RES1   0.0000
  5201 O109    34.3052  25.1167  18.9887   O.3       1 RES1   0.0000
  5202 O110    28.1166  19.4703  18.9887   O.3       1 RES1   0.0000
  5203 O113    36.8235  34.3052   7.2819   O.3       1 RES1   0.0000
  5204 O114    36.8235  28.1166   1.6355   O.3       1 RES1   0.0000
  5205 O117    25.1167  36.8235  -1.3644   O.3       1 RES1   0.0000
  5206 O117    25.1167  36.8235  16.4704   O.3       1 RES1   0.0000
  5207 O118    19.4703  36.8235  10.2818   O.3       1 RES1   0.0000
  5208 O120    19.4703  25.5983  -1.3644   O.3       1 RES1   0.0000
  5209 O121    36.7326  25.6892   1.0630   O.3       1 RES1   0.0000
  5210 O122    25.6892  36.7326   1.0630   O.3       1 RES1   0.0000
  5211 O124    36.7326  18.8978   7.8544   O.3       1 RES1   0.0000
  5212 O125    34.6066  27.8152  -1.0630   O.3       1 RES1   0.0000
  5213 O126    27.8152  34.6066  -1.0630   O.3       1 RES1   0.0000
  5214 O129    36.7326  27.9757  -0.8846   O.3       1 RES1   0.0000
  5215 O130    25.6892  34.4461  -0.8846   O.3       1 RES1   0.0000
  5216 O132    36.7326  34.4461   9.8020   O.3       1 RES1   0.0000
  5217 O136    27.6368  36.7326  16.6113   O.3       1 RES1   0.0000
  5218 O140    34.4461  27.6368  18.8978   O.3       1 RES1   0.0000
  5219 O141    34.6066  25.5287  18.7194   O.3       1 RES1   0.0000
  5220 O142    27.8152  19.0583  18.7194   O.3       1 RES1   0.0000
  5221 O145    36.5542  34.6066   7.6939   O.3       1 RES1   0.0000
  5222 O146    36.5542  27.8152   1.2235   O.3       1 RES1   0.0000
  5223 O149    25.5287  36.5542  -1.0630   O.3       1 RES1   0.0000
  5224 O149    25.5287  36.5542  16.7718   O.3       1 RES1   0.0000
  5225 O150    19.0583  36.5542   9.9804   O.3       1 RES1   0.0000
  5226 O152    19.0583  25.8676  -1.0630   O.3       1 RES1   0.0000
  5227 O153    37.0696  25.3522   1.4000   O.3       1 RES1   0.0000
  5228 O154    25.3522  37.0696   1.4000   O.3       1 RES1   0.0000
  5229 O156    37.0696  19.2348   7.5174   O.3       1 RES1   0.0000
  5230 O157    34.2696  28.1522  -1.4000   O.3       1 RES1   0.0000
  5231 O158    28.1522  34.2696  -1.4000   O.3       1 RES1   0.0000
  5232 Zr3     24.2937  26.9507  26.5403   Zr        1 RES1   0.0000
  5233 Zr7     26.5403  24.2937  26.9507   Zr        1 RES1   0.0000
  5234 Zr11    26.9507  26.5403  24.2937   Zr        1 RES1   0.0000
  5235 Zr13    33.2111  26.5537  35.4577   Zr        1 RES1   0.0000
  5236 Zr15    29.2107  26.5537  26.9641   Zr        1 RES1   0.0000
  5237 Zr17    35.4577  33.2111  26.5537   Zr        1 RES1   0.0000
  5238 Zr19    26.9641  29.2107  26.5537   Zr        1 RES1   0.0000
  5239 Zr21    26.5537  35.4577  33.2111   Zr        1 RES1   0.0000
  5240 Zr23    26.5537  26.9641  29.2107   Zr        1 RES1   0.0000
  5241 O1      21.5623  25.1203  17.9775   O.co2     1 RES1   0.0000
  5242 O3      23.0247  25.1203  26.6095   O.co2     1 RES1   0.0000
  5243 O5      17.9775  21.5623  25.1203   O.co2     1 RES1   0.0000
  5244 O7      26.6095  23.0247  25.1203   O.co2     1 RES1   0.0000
  5245 O9      25.1203  17.9775  21.5623   O.co2     1 RES1   0.0000
  5246 O11     25.1203  26.6095  23.0247   O.co2     1 RES1   0.0000
  5247 O13     31.9421  28.3841  35.5269   O.co2     1 RES1   0.0000
  5248 O14     30.4797  34.0377  35.5269   O.co2     1 RES1   0.0000
  5249 O15     30.4797  28.3841  26.8949   O.co2     1 RES1   0.0000
  5250 O16     31.9421  34.0377  26.8949   O.co2     1 RES1   0.0000
  5251 O17     35.5269  31.9421  28.3841   O.co2     1 RES1   0.0000
  5252 O18     35.5269  30.4797  34.0377   O.co2     1 RES1   0.0000
  5253 O19     26.8949  30.4797  28.3841   O.co2     1 RES1   0.0000
  5254 O20     26.8949  31.9421  34.0377   O.co2     1 RES1   0.0000
  5255 O21     28.3841  35.5269  31.9421   O.co2     1 RES1   0.0000
  5256 O22     34.0377  35.5269  30.4797   O.co2     1 RES1   0.0000
  5257 O23     28.3841  26.8949  30.4797   O.co2     1 RES1   0.0000
  5258 O24     34.0377  26.8949  31.9421   O.co2     1 RES1   0.0000
  5259 O25     21.2305  28.9744  18.2735   O.co2     1 RES1   0.0000
  5260 O26     23.3565  33.4474  18.2735   O.co2     1 RES1   0.0000
  5261 O27     23.3565  28.9744  26.3135   O.co2     1 RES1   0.0000
  5262 O28     21.2305  33.4474  26.3135   O.co2     1 RES1   0.0000
  5263 O29     18.2735  21.2305  28.9744   O.co2     1 RES1   0.0000
  5264 O30     18.2735  23.3565  33.4474   O.co2     1 RES1   0.0000
  5265 O31     26.3135  23.3565  28.9744   O.co2     1 RES1   0.0000
  5266 O32     26.3135  21.2305  33.4474   O.co2     1 RES1   0.0000
  5267 O33     28.9744  18.2735  21.2305   O.co2     1 RES1   0.0000
  5268 O34     33.4474  18.2735  23.3565   O.co2     1 RES1   0.0000
  5269 O35     28.9744  26.3135  23.3565   O.co2     1 RES1   0.0000
  5270 O36     33.4474  26.3135  21.2305   O.co2     1 RES1   0.0000
  5271 O37     32.2739  24.5300  35.2309   O.co2     1 RES1   0.0000
  5272 O38     30.1479  20.0570  35.2309   O.co2     1 RES1   0.0000
  5273 O39     30.1479  24.5300  27.1909   O.co2     1 RES1   0.0000
  5274 O40     32.2739  20.0570  27.1909   O.co2     1 RES1   0.0000
  5275 O41     35.2309  32.2739  24.5300   O.co2     1 RES1   0.0000
  5276 O42     35.2309  30.1479  20.0570   O.co2     1 RES1   0.0000
  5277 O43     27.1909  30.1479  24.5300   O.co2     1 RES1   0.0000
  5278 O44     27.1909  32.2739  20.0570   O.co2     1 RES1   0.0000
  5279 O45     24.5300  35.2309  32.2739   O.co2     1 RES1   0.0000
  5280 O46     20.0570  35.2309  30.1479   O.co2     1 RES1   0.0000
  5281 O47     24.5300  27.1909  30.1479   O.co2     1 RES1   0.0000
  5282 O48     20.0570  27.1909  32.2739   O.co2     1 RES1   0.0000
  5283 O49     21.2163  26.8824  20.0873   O.co2     1 RES1   0.0000
  5284 O51     23.3707  26.8824  24.4997   O.co2     1 RES1   0.0000
  5285 O53     20.0873  21.2163  26.8824   O.co2     1 RES1   0.0000
  5286 O55     24.4997  23.3707  26.8824   O.co2     1 RES1   0.0000
  5287 O57     26.8824  20.0873  21.2163   O.co2     1 RES1   0.0000
  5288 O59     26.8824  24.4997  23.3707   O.co2     1 RES1   0.0000
  5289 O61     32.2881  26.6220  33.4171   O.co2     1 RES1   0.0000
  5290 O62     30.1337  35.7998  33.4171   O.co2     1 RES1   0.0000
  5291 O63     30.1337  26.6220  29.0047   O.co2     1 RES1   0.0000
  5292 O64     32.2881  35.7998  29.0047   O.co2     1 RES1   0.0000
  5293 O65     33.4171  32.2881  26.6220   O.co2     1 RES1   0.0000
  5294 O66     33.4171  30.1337  35.7998   O.co2     1 RES1   0.0000
  5295 O67     29.0047  30.1337  26.6220   O.co2     1 RES1   0.0000
  5296 O68     29.0047  32.2881  35.7998   O.co2     1 RES1   0.0000
  5297 O69     26.6220  33.4171  32.2881   O.co2     1 RES1   0.0000
  5298 O70     35.7998  33.4171  30.1337   O.co2     1 RES1   0.0000
  5299 O71     26.6220  29.0047  30.1337   O.co2     1 RES1   0.0000
  5300 O72     35.7998  29.0047  32.2881   O.co2     1 RES1   0.0000
  5301 O73     21.5587  27.1785  34.0538   O.co2     1 RES1   0.0000
  5302 O74     23.0283  35.2433  34.0538   O.co2     1 RES1   0.0000
  5303 O75     23.0283  27.1785  28.3680   O.co2     1 RES1   0.0000
  5304 O76     21.5587  35.2433  28.3680   O.co2     1 RES1   0.0000
  5305 O77     34.0538  21.5587  27.1785   O.co2     1 RES1   0.0000
  5306 O78     34.0538  23.0283  35.2433   O.co2     1 RES1   0.0000
  5307 O79     28.3680  23.0283  27.1785   O.co2     1 RES1   0.0000
  5308 O80     28.3680  21.5587  35.2433   O.co2     1 RES1   0.0000
  5309 O81     27.1785  34.0538  21.5587   O.co2     1 RES1   0.0000
  5310 O82     35.2433  34.0538  23.0283   O.co2     1 RES1   0.0000
  5311 O83     27.1785  28.3680  23.0283   O.co2     1 RES1   0.0000
  5312 O84     35.2433  28.3680  21.5587   O.co2     1 RES1   0.0000
  5313 O87     30.4761  26.3259  25.1364   O.co2     1 RES1   0.0000
  5314 O88     31.9457  18.2611  25.1364   O.co2     1 RES1   0.0000
  5315 O91     25.1364  30.4761  26.3259   O.co2     1 RES1   0.0000
  5316 O92     25.1364  31.9457  18.2611   O.co2     1 RES1   0.0000
  5317 O95     26.3259  25.1364  30.4761   O.co2     1 RES1   0.0000
  5318 O96     18.2611  25.1364  31.9457   O.co2     1 RES1   0.0000
  5319 C1      20.6955  30.1248  18.2628   C.2       1 RES1   0.0000
  5320 C2      23.8915  32.2970  18.2628   C.2       1 RES1   0.0000
  5321 C3      23.8915  30.1248  26.3242   C.2       1 RES1   0.0000
  5322 C4      20.6955  32.2970  26.3242   C.2       1 RES1   0.0000
  5323 C5      18.2628  20.6955  30.1248   C.2       1 RES1   0.0000
  5324 C6      18.2628  23.8915  32.2970   C.2       1 RES1   0.0000
  5325 C7      26.3242  23.8915  30.1248   C.2       1 RES1   0.0000
  5326 C8      26.3242  20.6955  32.2970   C.2       1 RES1   0.0000
  5327 C9      30.1248  18.2628  20.6955   C.2       1 RES1   0.0000
  5328 C10     32.2970  18.2628  23.8915   C.2       1 RES1   0.0000
  5329 C11     30.1248  26.3242  23.8915   C.2       1 RES1   0.0000
  5330 C12     32.2970  26.3242  20.6955   C.2       1 RES1   0.0000
  5331 C13     32.8089  23.3796  35.2416   C.2       1 RES1   0.0000
  5332 C14     29.6129  21.2074  35.2416   C.2       1 RES1   0.0000
  5333 C15     29.6129  23.3796  27.1802   C.2       1 RES1   0.0000
  5334 C16     32.8089  21.2074  27.1802   C.2       1 RES1   0.0000
  5335 C17     35.2416  32.8089  23.3796   C.2       1 RES1   0.0000
  5336 C18     35.2416  29.6129  21.2074   C.2       1 RES1   0.0000
  5337 C19     27.1802  29.6129  23.3796   C.2       1 RES1   0.0000
  5338 C20     27.1802  32.8089  21.2074   C.2       1 RES1   0.0000
  5339 C21     23.3796  35.2416  32.8089   C.2       1 RES1   0.0000
  5340 C22     21.2074  35.2416  29.6129   C.2       1 RES1   0.0000
  5341 C23     23.3796  27.1802  29.6129   C.2       1 RES1   0.0000
  5342 C24     21.2074  27.1802  32.8089   C.2       1 RES1   0.0000
  5343 C25     21.6550  31.3090  18.2682   C.2       1 RES1   0.0000
  5344 C26     22.9320  31.1128  18.2682   C.2       1 RES1   0.0000
  5345 C27     22.9320  31.3090  26.3188   C.2       1 RES1   0.0000
  5346 C28     21.6550  31.1128  26.3188   C.2       1 RES1   0.0000
  5347 C29     18.2682  21.6550  31.3090   C.2       1 RES1   0.0000
  5348 C30     18.2682  22.9320  31.1128   C.2       1 RES1   0.0000
  5349 C31     26.3188  22.9320  31.3090   C.2       1 RES1   0.0000
  5350 C32     26.3188  21.6550  31.1128   C.2       1 RES1   0.0000
  5351 C33     31.3090  18.2682  21.6550   C.2       1 RES1   0.0000
  5352 C34     31.1128  18.2682  22.9320   C.2       1 RES1   0.0000
  5353 C35     31.3090  26.3188  22.9320   C.2       1 RES1   0.0000
  5354 C36     31.1128  26.3188  21.6550   C.2       1 RES1   0.0000
  5355 C37     31.8494  22.1954  35.2362   C.2       1 RES1   0.0000
  5356 C38     30.5724  22.3916  35.2362   C.2       1 RES1   0.0000
  5357 C39     30.5724  22.1954  27.1856   C.2       1 RES1   0.0000
  5358 C40     31.8494  22.3916  27.1856   C.2       1 RES1   0.0000
  5359 C41     35.2362  31.8494  22.1954   C.2       1 RES1   0.0000
  5360 C42     35.2362  30.5724  22.3916   C.2       1 RES1   0.0000
  5361 C43     27.1856  30.5724  22.1954   C.2       1 RES1   0.0000
  5362 C44     27.1856  31.8494  22.3916   C.2       1 RES1   0.0000
  5363 C45     22.1954  35.2362  31.8494   C.2       1 RES1   0.0000
  5364 C46     22.3916  35.2362  30.5724   C.2       1 RES1   0.0000
  5365 C47     22.1954  27.1856  30.5724   C.2       1 RES1   0.0000
  5366 C48     22.3916  27.1856  31.8494   C.2       1 RES1   0.0000
  5367 H1      21.3215  32.1775  18.2700   H         1 RES1   0.0000
  5368 H2      23.2655  30.2443  18.2700   H         1 RES1   0.0000
  5369 H3      23.2655  32.1775  26.3170   H         1 RES1   0.0000
  5370 H4      21.3215  30.2443  26.3170   H         1 RES1   0.0000
  5371 H5      18.2700  21.3215  32.1775   H         1 RES1   0.0000
  5372 H6      18.2700  23.2655  30.2443   H         1 RES1   0.0000
  5373 H7      26.3170  23.2655  32.1775   H         1 RES1   0.0000
  5374 H8      26.3170  21.3215  30.2443   H         1 RES1   0.0000
  5375 H9      32.1775  18.2700  21.3215   H         1 RES1   0.0000
  5376 H10     30.2443  18.2700  23.2655   H         1 RES1   0.0000
  5377 H11     32.1775  26.3170  23.2655   H         1 RES1   0.0000
  5378 H12     30.2443  26.3170  21.3215   H         1 RES1   0.0000
  5379 H13     32.1829  21.3269  35.2344   H         1 RES1   0.0000
  5380 H14     30.2389  23.2601  35.2344   H         1 RES1   0.0000
  5381 H15     30.2389  21.3269  27.1874   H         1 RES1   0.0000
  5382 H16     32.1829  23.2601  27.1874   H         1 RES1   0.0000
  5383 H17     35.2344  32.1829  21.3269   H         1 RES1   0.0000
  5384 H18     35.2344  30.2389  23.2601   H         1 RES1   0.0000
  5385 H19     27.1874  30.2389  21.3269   H         1 RES1   0.0000
  5386 H20     27.1874  32.1829  23.2601   H         1 RES1   0.0000
  5387 H21     21.3269  35.2344  32.1829   H         1 RES1   0.0000
  5388 H22     23.2601  35.2344  30.2389   H         1 RES1   0.0000
  5389 H23     21.3269  27.1874  30.2389   H         1 RES1   0.0000
  5390 H24     23.2601  27.1874  32.1829   H         1 RES1   0.0000
  5391 C49     21.2341  23.8951  17.8348   C.2       1 RES1   0.0000
  5392 C50     23.3529  20.6919  17.8348   C.2       1 RES1   0.0000
  5393 C51     23.3529  23.8951  26.7522   C.2       1 RES1   0.0000
  5394 C52     21.2341  20.6919  26.7522   C.2       1 RES1   0.0000
  5395 C53     17.8348  21.2341  23.8951   C.2       1 RES1   0.0000
  5396 C54     17.8348  23.3529  20.6919   C.2       1 RES1   0.0000
  5397 C55     26.7522  23.3529  23.8951   C.2       1 RES1   0.0000
  5398 C56     26.7522  21.2341  20.6919   C.2       1 RES1   0.0000
  5399 C57     23.8951  17.8348  21.2341   C.2       1 RES1   0.0000
  5400 C58     20.6919  17.8348  23.3529   C.2       1 RES1   0.0000
  5401 C59     23.8951  26.7522  23.3529   C.2       1 RES1   0.0000
  5402 C60     20.6919  26.7522  21.2341   C.2       1 RES1   0.0000
  5403 C61     32.2703  29.6093  35.6696   C.2       1 RES1   0.0000
  5404 C62     30.1515  32.8125  35.6696   C.2       1 RES1   0.0000
  5405 C63     30.1515  29.6093  26.7522   C.2       1 RES1   0.0000
  5406 C64     32.2703  32.8125  26.7522   C.2       1 RES1   0.0000
  5407 C65     35.6696  32.2703  29.6093   C.2       1 RES1   0.0000
  5408 C66     35.6696  30.1515  32.8125   C.2       1 RES1   0.0000
  5409 C67     26.7522  30.1515  29.6093   C.2       1 RES1   0.0000
  5410 C68     26.7522  32.2703  32.8125   C.2       1 RES1   0.0000
  5411 C69     29.6093  35.6696  32.2703   C.2       1 RES1   0.0000
  5412 C70     32.8125  35.6696  30.1515   C.2       1 RES1   0.0000
  5413 C71     29.6093  26.7522  30.1515   C.2       1 RES1   0.0000
  5414 C72     32.8125  26.7522  32.2703   C.2       1 RES1   0.0000
  5415 C73     22.4130  22.9445  17.8366   C.2       1 RES1   0.0000
  5416 C74     22.1740  21.6425  17.8366   C.2       1 RES1   0.0000
  5417 C75     22.1740  22.9445  26.7504   C.2       1 RES1   0.0000
  5418 C76     22.4130  21.6425  26.7504   C.2       1 RES1   0.0000
  5419 C77     17.8366  22.4130  22.9445   C.2       1 RES1   0.0000
  5420 C78     17.8366  22.1740  21.6425   C.2       1 RES1   0.0000
  5421 C79     26.7504  22.1740  22.9445   C.2       1 RES1   0.0000
  5422 C80     26.7504  22.4130  21.6425   C.2       1 RES1   0.0000
  5423 C81     22.9445  17.8366  22.4130   C.2       1 RES1   0.0000
  5424 C82     21.6425  17.8366  22.1740   C.2       1 RES1   0.0000
  5425 C83     22.9445  26.7504  22.1740   C.2       1 RES1   0.0000
  5426 C84     21.6425  26.7504  22.4130   C.2       1 RES1   0.0000
  5427 C85     31.0914  30.5599  35.6678   C.2       1 RES1   0.0000
  5428 C86     31.3304  31.8619  35.6678   C.2       1 RES1   0.0000
  5429 C87     31.3304  30.5599  26.7540   C.2       1 RES1   0.0000
  5430 C88     31.0914  31.8619  26.7540   C.2       1 RES1   0.0000
  5431 C89     35.6678  31.0914  30.5599   C.2       1 RES1   0.0000
  5432 C90     35.6678  31.3304  31.8619   C.2       1 RES1   0.0000
  5433 C91     26.7540  31.3304  30.5599   C.2       1 RES1   0.0000
  5434 C92     26.7540  31.0914  31.8619   C.2       1 RES1   0.0000
  5435 C93     30.5599  35.6678  31.0914   C.2       1 RES1   0.0000
  5436 C94     31.8619  35.6678  31.3304   C.2       1 RES1   0.0000
  5437 C95     30.5599  26.7540  31.3304   C.2       1 RES1   0.0000
  5438 C96     31.8619  26.7540  31.0914   C.2       1 RES1   0.0000
  5439 H25     23.2851  23.2673  17.8366   H         1 RES1   0.0000
  5440 H26     21.3019  21.3197  17.8366   H         1 RES1   0.0000
  5441 H27     21.3019  23.2673  26.7504   H         1 RES1   0.0000
  5442 H28     23.2851  21.3197  26.7504   H         1 RES1   0.0000
  5443 H29     17.8366  23.2851  23.2673   H         1 RES1   0.0000
  5444 H30     17.8366  21.3019  21.3197   H         1 RES1   0.0000
  5445 H31     26.7504  21.3019  23.2673   H         1 RES1   0.0000
  5446 H32     26.7504  23.2851  21.3197   H         1 RES1   0.0000
  5447 H33     23.2673  17.8366  23.2851   H         1 RES1   0.0000
  5448 H34     21.3197  17.8366  21.3019   H         1 RES1   0.0000
  5449 H35     23.2673  26.7504  21.3019   H         1 RES1   0.0000
  5450 H36     21.3197  26.7504  23.2851   H         1 RES1   0.0000
  5451 H37     30.2193  30.2371  35.6678   H         1 RES1   0.0000
  5452 H38     32.2025  32.1847  35.6678   H         1 RES1   0.0000
  5453 H39     32.2025  30.2371  26.7540   H         1 RES1   0.0000
  5454 H40     30.2193  32.1847  26.7540   H         1 RES1   0.0000
  5455 H41     35.6678  30.2193  30.2371   H         1 RES1   0.0000
  5456 H42     35.6678  32.2025  32.1847   H         1 RES1   0.0000
  5457 H43     26.7540  32.2025  30.2371   H         1 RES1   0.0000
  5458 H44     26.7540  30.2193  32.1847   H         1 RES1   0.0000
  5459 H45     30.2371  35.6678  30.2193   H         1 RES1   0.0000
  5460 H46     32.1847  35.6678  32.2025   H         1 RES1   0.0000
  5461 H47     30.2371  26.7540  32.2025   H         1 RES1   0.0000
  5462 H48     32.1847  26.7540  30.2193   H         1 RES1   0.0000
  5463 O98     25.3878  34.0341  34.5157   O.3       1 RES1   0.0000
  5464 O99     25.3878  28.3877  27.9061   O.3       1 RES1   0.0000
  5465 O101    34.5157  19.1992  28.3877   O.3       1 RES1   0.0000
  5466 O102    34.5157  25.3878  34.0341   O.3       1 RES1   0.0000
  5467 O103    27.9061  25.3878  28.3877   O.3       1 RES1   0.0000
  5468 O105    28.3877  34.5157  19.1992   O.3       1 RES1   0.0000
  5469 O106    34.0341  34.5157  25.3878   O.3       1 RES1   0.0000
  5470 O107    28.3877  27.9061  25.3878   O.3       1 RES1   0.0000
  5471 O111    28.1166  25.1167  25.5983   O.3       1 RES1   0.0000
  5472 O112    34.3052  19.4703  25.5983   O.3       1 RES1   0.0000
  5473 O115    25.5983  28.1166  25.1167   O.3       1 RES1   0.0000
  5474 O116    25.5983  34.3052  19.4703   O.3       1 RES1   0.0000
  5475 O119    25.1167  25.5983  28.1166   O.3       1 RES1   0.0000
  5476 O120    19.4703  25.5983  34.3052   O.3       1 RES1   0.0000
  5477 O123    25.6892  25.6892  25.6892   O.3       1 RES1   0.0000
  5478 O125    34.6066  27.8152  34.6066   O.3       1 RES1   0.0000
  5479 O126    27.8152  34.6066  34.6066   O.3       1 RES1   0.0000
  5480 O127    27.8152  27.8152  27.8152   O.3       1 RES1   0.0000
  5481 O128    34.6066  34.6066  27.8152   O.3       1 RES1   0.0000
  5482 O130    25.6892  34.4461  34.7850   O.3       1 RES1   0.0000
  5483 O131    25.6892  27.9757  27.6368   O.3       1 RES1   0.0000
  5484 O133    34.7850  18.8978  27.9757   O.3       1 RES1   0.0000
  5485 O134    34.7850  25.6892  34.4461   O.3       1 RES1   0.0000
  5486 O135    27.6368  25.6892  27.9757   O.3       1 RES1   0.0000
  5487 O137    27.9757  34.7850  18.8978   O.3       1 RES1   0.0000
  5488 O138    34.4461  34.7850  25.6892   O.3       1 RES1   0.0000
  5489 O139    27.9757  27.6368  25.6892   O.3       1 RES1   0.0000
  5490 O143    27.8152  25.5287  25.8676   O.3       1 RES1   0.0000
  5491 O144    34.6066  19.0583  25.8676   O.3       1 RES1   0.0000
  5492 O147    25.8676  27.8152  25.5287   O.3       1 RES1   0.0000
  5493 O148    25.8676  34.6066  19.0583   O.3       1 RES1   0.0000
  5494 O151    25.5287  25.8676  27.8152   O.3       1 RES1   0.0000
  5495 O152    19.0583  25.8676  34.6066   O.3       1 RES1   0.0000
  5496 O155    25.3522  25.3522  25.3522   O.3       1 RES1   0.0000
  5497 O157    34.2696  28.1522  34.2696   O.3       1 RES1   0.0000
  5498 O158    28.1522  34.2696  34.2696   O.3       1 RES1   0.0000
  5499 O159    28.1522  28.1522  28.1522   O.3       1 RES1   0.0000
  5500 O160    34.2696  34.2696  28.1522   O.3       1 RES1   0.0000
  5501 Zr1     38.1281  26.9507  18.0467   Zr        1 RES1   0.0000
  5502 Zr2     24.2937  35.4711  35.8815   Zr        1 RES1   0.0000
  5503 Zr4     38.1281  35.4711  26.5403   Zr        1 RES1   0.0000
  5504 Zr5     35.8815  20.2933  26.9507   Zr        1 RES1   0.0000
  5505 Zr6     35.8815  24.2937  35.4711   Zr        1 RES1   0.0000
  5506 Zr8     26.5403  38.1281  35.4711   Zr        1 RES1   0.0000
  5507 Zr9     26.9507  35.8815  20.2933   Zr        1 RES1   0.0000
  5508 Zr10    35.4711  35.8815  24.2937   Zr        1 RES1   0.0000
  5509 Zr12    35.4711  26.5403  38.1281   Zr        1 RES1   0.0000
  5510 Zr14    29.2107  35.8681  35.4577   Zr        1 RES1   0.0000
  5511 Zr16    33.2111  35.8681  26.9641   Zr        1 RES1   0.0000
  5512 Zr18    35.4577  29.2107  35.8681   Zr        1 RES1   0.0000
  5513 Zr20    26.9641  33.2111  35.8681   Zr        1 RES1   0.0000
  5514 Zr22    35.8681  35.4577  29.2107   Zr        1 RES1   0.0000
  5515 Zr24    35.8681  26.9641  33.2111   Zr        1 RES1   0.0000
  5516 O2      23.0247  37.3015  17.9775   O.co2     1 RES1   0.0000
  5517 O4      21.5623  37.3015  26.6095   O.co2     1 RES1   0.0000
  5518 O6      17.9775  23.0247  37.3015   O.co2     1 RES1   0.0000
  5519 O8      26.6095  21.5623  37.3015   O.co2     1 RES1   0.0000
  5520 O10     37.3015  17.9775  23.0247   O.co2     1 RES1   0.0000
  5521 O12     37.3015  26.6095  21.5623   O.co2     1 RES1   0.0000
  5522 O50     23.3707  35.5394  20.0873   O.co2     1 RES1   0.0000
  5523 O52     21.2163  35.5394  24.4997   O.co2     1 RES1   0.0000
  5524 O54     20.0873  23.3707  35.5394   O.co2     1 RES1   0.0000
  5525 O56     24.4997  21.2163  35.5394   O.co2     1 RES1   0.0000
  5526 O58     35.5394  20.0873  23.3707   O.co2     1 RES1   0.0000
  5527 O60     35.5394  24.4997  21.2163   O.co2     1 RES1   0.0000
  5528 O85     31.9457  26.3259  37.2854   O.co2     1 RES1   0.0000
  5529 O86     30.4761  18.2611  37.2854   O.co2     1 RES1   0.0000
  5530 O89     37.2854  31.9457  26.3259   O.co2     1 RES1   0.0000
  5531 O90     37.2854  30.4761  18.2611   O.co2     1 RES1   0.0000
  5532 O93     26.3259  37.2854  31.9457   O.co2     1 RES1   0.0000
  5533 O94     18.2611  37.2854  30.4761   O.co2     1 RES1   0.0000
  5534 O97     37.0340  28.3877  16.6809   O.3       1 RES1   0.0000
  5535 O100    37.0340  34.0341  27.9061   O.3       1 RES1   0.0000
  5536 O104    27.9061  37.0340  34.0341   O.3       1 RES1   0.0000
  5537 O108    34.0341  27.9061  37.0340   O.3       1 RES1   0.0000
  5538 O109    34.3052  25.1167  36.8235   O.3       1 RES1   0.0000
  5539 O110    28.1166  19.4703  36.8235   O.3       1 RES1   0.0000
  5540 O113    36.8235  34.3052  25.1167   O.3       1 RES1   0.0000
  5541 O114    36.8235  28.1166  19.4703   O.3       1 RES1   0.0000
  5542 O117    25.1167  36.8235  34.3052   O.3       1 RES1   0.0000
  5543 O118    19.4703  36.8235  28.1166   O.3       1 RES1   0.0000
  5544 O121    36.7326  25.6892  18.8978   O.3       1 RES1   0.0000
  5545 O122    25.6892  36.7326  18.8978   O.3       1 RES1   0.0000
  5546 O124    36.7326  18.8978  25.6892   O.3       1 RES1   0.0000
  5547 O129    36.7326  27.9757  16.9502   O.3       1 RES1   0.0000
  5548 O132    36.7326  34.4461  27.6368   O.3       1 RES1   0.0000
  5549 O136    27.6368  36.7326  34.4461   O.3       1 RES1   0.0000
  5550 O140    34.4461  27.6368  36.7326   O.3       1 RES1   0.0000
  5551 O141    34.6066  25.5287  36.5542   O.3       1 RES1   0.0000
  5552 O142    27.8152  19.0583  36.5542   O.3       1 RES1   0.0000
  5553 O145    36.5542  34.6066  25.5287   O.3       1 RES1   0.0000
  5554 O146    36.5542  27.8152  19.0583   O.3       1 RES1   0.0000
  5555 O149    25.5287  36.5542  34.6066   O.3       1 RES1   0.0000
  5556 O150    19.0583  36.5542  27.8152   O.3       1 RES1   0.0000
  5557 O153    37.0696  25.3522  19.2348   O.3       1 RES1   0.0000
  5558 O154    25.3522  37.0696  19.2348   O.3       1 RES1   0.0000
  5559 O156    37.0696  19.2348  25.3522   O.3       1 RES1   0.0000
  5560 Zr3     24.2937  26.9507  44.3751   Zr        1 RES1   0.0000
  5561 Zr7     26.5403  24.2937  44.7855   Zr        1 RES1   0.0000
  5562 Zr11    26.9507  26.5403  42.1285   Zr        1 RES1   0.0000
  5563 Zr13    33.2111  26.5537  53.2925   Zr        1 RES1   0.0000
  5564 Zr15    29.2107  26.5537  44.7989   Zr        1 RES1   0.0000
  5565 Zr17    35.4577  33.2111  44.3885   Zr        1 RES1   0.0000
  5566 Zr19    26.9641  29.2107  44.3885   Zr        1 RES1   0.0000
  5567 Zr21    26.5537  35.4577  51.0459   Zr        1 RES1   0.0000
  5568 Zr23    26.5537  26.9641  47.0455   Zr        1 RES1   0.0000
  5569 O1      21.5623  25.1203  35.8123   O.co2     1 RES1   0.0000
  5570 O3      23.0247  25.1203  44.4443   O.co2     1 RES1   0.0000
  5571 O5      17.9775  21.5623  42.9551   O.co2     1 RES1   0.0000
  5572 O7      26.6095  23.0247  42.9551   O.co2     1 RES1   0.0000
  5573 O9      25.1203  17.9775  39.3971   O.co2     1 RES1   0.0000
  5574 O11     25.1203  26.6095  40.8595   O.co2     1 RES1   0.0000
  5575 O13     31.9421  28.3841  53.3617   O.co2     1 RES1   0.0000
  5576 O14     30.4797  34.0377  53.3617   O.co2     1 RES1   0.0000
  5577 O15     30.4797  28.3841  44.7297   O.co2     1 RES1   0.0000
  5578 O16     31.9421  34.0377  44.7297   O.co2     1 RES1   0.0000
  5579 O17     35.5269  31.9421  46.2189   O.co2     1 RES1   0.0000
  5580 O18     35.5269  30.4797  51.8725   O.co2     1 RES1   0.0000
  5581 O19     26.8949  30.4797  46.2189   O.co2     1 RES1   0.0000
  5582 O20     26.8949  31.9421  51.8725   O.co2     1 RES1   0.0000
  5583 O21     28.3841  35.5269  49.7769   O.co2     1 RES1   0.0000
  5584 O22     34.0377  35.5269  48.3145   O.co2     1 RES1   0.0000
  5585 O23     28.3841  26.8949  48.3145   O.co2     1 RES1   0.0000
  5586 O24     34.0377  26.8949  49.7769   O.co2     1 RES1   0.0000
  5587 O25     21.2305  28.9744  36.1083   O.co2     1 RES1   0.0000
  5588 O26     23.3565  33.4474  36.1083   O.co2     1 RES1   0.0000
  5589 O27     23.3565  28.9744  44.1483   O.co2     1 RES1   0.0000
  5590 O28     21.2305  33.4474  44.1483   O.co2     1 RES1   0.0000
  5591 O29     18.2735  21.2305  46.8092   O.co2     1 RES1   0.0000
  5592 O30     18.2735  23.3565  51.2822   O.co2     1 RES1   0.0000
  5593 O31     26.3135  23.3565  46.8092   O.co2     1 RES1   0.0000
  5594 O32     26.3135  21.2305  51.2822   O.co2     1 RES1   0.0000
  5595 O33     28.9744  18.2735  39.0653   O.co2     1 RES1   0.0000
  5596 O34     33.4474  18.2735  41.1913   O.co2     1 RES1   0.0000
  5597 O35     28.9744  26.3135  41.1913   O.co2     1 RES1   0.0000
  5598 O36     33.4474  26.3135  39.0653   O.co2     1 RES1   0.0000
  5599 O37     32.2739  24.5300  53.0657   O.co2     1 RES1   0.0000
  5600 O38     30.1479  20.0570  53.0657   O.co2     1 RES1   0.0000
  5601 O39     30.1479  24.5300  45.0257   O.co2     1 RES1   0.0000
  5602 O40     32.2739  20.0570  45.0257   O.co2     1 RES1   0.0000
  5603 O41     35.2309  32.2739  42.3648   O.co2     1 RES1   0.0000
  5604 O42     35.2309  30.1479  37.8918   O.co2     1 RES1   0.0000
  5605 O43     27.1909  30.1479  42.3648   O.co2     1 RES1   0.0000
  5606 O44     27.1909  32.2739  37.8918   O.co2     1 RES1   0.0000
  5607 O45     24.5300  35.2309  50.1087   O.co2     1 RES1   0.0000
  5608 O46     20.0570  35.2309  47.9827   O.co2     1 RES1   0.0000
  5609 O47     24.5300  27.1909  47.9827   O.co2     1 RES1   0.0000
  5610 O48     20.0570  27.1909  50.1087   O.co2     1 RES1   0.0000
  5611 O49     21.2163  26.8824  37.9221   O.co2     1 RES1   0.0000
  5612 O51     23.3707  26.8824  42.3345   O.co2     1 RES1   0.0000
  5613 O53     20.0873  21.2163  44.7172   O.co2     1 RES1   0.0000
  5614 O55     24.4997  23.3707  44.7172   O.co2     1 RES1   0.0000
  5615 O57     26.8824  20.0873  39.0511   O.co2     1 RES1   0.0000
  5616 O59     26.8824  24.4997  41.2055   O.co2     1 RES1   0.0000
  5617 O61     32.2881  26.6220  51.2519   O.co2     1 RES1   0.0000
  5618 O62     30.1337  35.7998  51.2519   O.co2     1 RES1   0.0000
  5619 O63     30.1337  26.6220  46.8395   O.co2     1 RES1   0.0000
  5620 O64     32.2881  35.7998  46.8395   O.co2     1 RES1   0.0000
  5621 O65     33.4171  32.2881  44.4568   O.co2     1 RES1   0.0000
  5622 O66     33.4171  30.1337  53.6346   O.co2     1 RES1   0.0000
  5623 O67     29.0047  30.1337  44.4568   O.co2     1 RES1   0.0000
  5624 O68     29.0047  32.2881  53.6346   O.co2     1 RES1   0.0000
  5625 O69     26.6220  33.4171  50.1229   O.co2     1 RES1   0.0000
  5626 O70     35.7998  33.4171  47.9685   O.co2     1 RES1   0.0000
  5627 O71     26.6220  29.0047  47.9685   O.co2     1 RES1   0.0000
  5628 O72     35.7998  29.0047  50.1229   O.co2     1 RES1   0.0000
  5629 O73     21.5587  27.1785  51.8886   O.co2     1 RES1   0.0000
  5630 O74     23.0283  35.2433  51.8886   O.co2     1 RES1   0.0000
  5631 O75     23.0283  27.1785  46.2028   O.co2     1 RES1   0.0000
  5632 O76     21.5587  35.2433  46.2028   O.co2     1 RES1   0.0000
  5633 O77     34.0538  21.5587  45.0133   O.co2     1 RES1   0.0000
  5634 O78     34.0538  23.0283  53.0781   O.co2     1 RES1   0.0000
  5635 O79     28.3680  23.0283  45.0133   O.co2     1 RES1   0.0000
  5636 O80     28.3680  21.5587  53.0781   O.co2     1 RES1   0.0000
  5637 O81     27.1785  34.0538  39.3935   O.co2     1 RES1   0.0000
  5638 O82     35.2433  34.0538  40.8631   O.co2     1 RES1   0.0000
  5639 O83     27.1785  28.3680  40.8631   O.co2     1 RES1   0.0000
  5640 O84     35.2433  28.3680  39.3935   O.co2     1 RES1   0.0000
  5641 O87     30.4761  26.3259  42.9712   O.co2     1 RES1   0.0000
  5642 O88     31.9457  18.2611  42.9712   O.co2     1 RES1   0.0000
  5643 O91     25.1364  30.4761  44.1607   O.co2     1 RES1   0.0000
  5644 O92     25.1364  31.9457  36.0959   O.co2     1 RES1   0.0000
  5645 O95     26.3259  25.1364  48.3109   O.co2     1 RES1   0.0000
  5646 O96     18.2611  25.1364  49.7805   O.co2     1 RES1   0.0000
  5647 C1      20.6955  30.1248  36.0976   C.2       1 RES1   0.0000
  5648 C2      23.8915  32.2970  36.0976   C.2       1 RES1   0.0000
  5649 C3      23.8915  30.1248  44.1590   C.2       1 RES1   0.0000
  5650 C4      20.6955  32.2970  44.1590   C.2       1 RES1   0.0000
  5651 C5      18.2628  20.6955  47.9596   C.2       1 RES1   0.0000
  5652 C6      18.2628  23.8915  50.1318   C.2       1 RES1   0.0000
  5653 C7      26.3242  23.8915  47.9596   C.2       1 RES1   0.0000
  5654 C8      26.3242  20.6955  50.1318   C.2       1 RES1   0.0000
  5655 C9      30.1248  18.2628  38.5303   C.2       1 RES1   0.0000
  5656 C10     32.2970  18.2628  41.7263   C.2       1 RES1   0.0000
  5657 C11     30.1248  26.3242  41.7263   C.2       1 RES1   0.0000
  5658 C12     32.2970  26.3242  38.5303   C.2       1 RES1   0.0000
  5659 C13     32.8089  23.3796  53.0764   C.2       1 RES1   0.0000
  5660 C14     29.6129  21.2074  53.0764   C.2       1 RES1   0.0000
  5661 C15     29.6129  23.3796  45.0150   C.2       1 RES1   0.0000
  5662 C16     32.8089  21.2074  45.0150   C.2       1 RES1   0.0000
  5663 C17     35.2416  32.8089  41.2144   C.2       1 RES1   0.0000
  5664 C18     35.2416  29.6129  39.0422   C.2       1 RES1   0.0000
  5665 C19     27.1802  29.6129  41.2144   C.2       1 RES1   0.0000
  5666 C20     27.1802  32.8089  39.0422   C.2       1 RES1   0.0000
  5667 C21     23.3796  35.2416  50.6437   C.2       1 RES1   0.0000
  5668 C22     21.2074  35.2416  47.4477   C.2       1 RES1   0.0000
  5669 C23     23.3796  27.1802  47.4477   C.2       1 RES1   0.0000
  5670 C24     21.2074  27.1802  50.6437   C.2       1 RES1   0.0000
  5671 C25     21.6550  31.3090  36.1030   C.2       1 RES1   0.0000
  5672 C26     22.9320  31.1128  36.1030   C.2       1 RES1   0.0000
  5673 C27     22.9320  31.3090  44.1536   C.2       1 RES1   0.0000
  5674 C28     21.6550  31.1128  44.1536   C.2       1 RES1   0.0000
  5675 C29     18.2682  21.6550  49.1438   C.2       1 RES1   0.0000
  5676 C30     18.2682  22.9320  48.9476   C.2       1 RES1   0.0000
  5677 C31     26.3188  22.9320  49.1438   C.2       1 RES1   0.0000
  5678 C32     26.3188  21.6550  48.9476   C.2       1 RES1   0.0000
  5679 C33     31.3090  18.2682  39.4898   C.2       1 RES1   0.0000
  5680 C34     31.1128  18.2682  40.7668   C.2       1 RES1   0.0000
  5681 C35     31.3090  26.3188  40.7668   C.2       1 RES1   0.0000
  5682 C36     31.1128  26.3188  39.4898   C.2       1 RES1   0.0000
  5683 C37     31.8494  22.1954  53.0710   C.2       1 RES1   0.0000
  5684 C38     30.5724  22.3916  53.0710   C.2       1 RES1   0.0000
  5685 C39     30.5724  22.1954  45.0204   C.2       1 RES1   0.0000
  5686 C40     31.8494  22.3916  45.0204   C.2       1 RES1   0.0000
  5687 C41     35.2362  31.8494  40.0302   C.2       1 RES1   0.0000
  5688 C42     35.2362  30.5724  40.2264   C.2       1 RES1   0.0000
  5689 C43     27.1856  30.5724  40.0302   C.2       1 RES1   0.0000
  5690 C44     27.1856  31.8494  40.2264   C.2       1 RES1   0.0000
  5691 C45     22.1954  35.2362  49.6842   C.2       1 RES1   0.0000
  5692 C46     22.3916  35.2362  48.4072   C.2       1 RES1   0.0000
  5693 C47     22.1954  27.1856  48.4072   C.2       1 RES1   0.0000
  5694 C48     22.3916  27.1856  49.6842   C.2       1 RES1   0.0000
  5695 H1      21.3215  32.1775  36.1048   H         1 RES1   0.0000
  5696 H2      23.2655  30.2443  36.1048   H         1 RES1   0.0000
  5697 H3      23.2655  32.1775  44.1518   H         1 RES1   0.0000
  5698 H4      21.3215  30.2443  44.1518   H         1 RES1   0.0000
  5699 H5      18.2700  21.3215  50.0123   H         1 RES1   0.0000
  5700 H6      18.2700  23.2655  48.0791   H         1 RES1   0.0000
  5701 H7      26.3170  23.2655  50.0123   H         1 RES1   0.0000
  5702 H8      26.3170  21.3215  48.0791   H         1 RES1   0.0000
  5703 H9      32.1775  18.2700  39.1563   H         1 RES1   0.0000
  5704 H10     30.2443  18.2700  41.1003   H         1 RES1   0.0000
  5705 H11     32.1775  26.3170  41.1003   H         1 RES1   0.0000
  5706 H12     30.2443  26.3170  39.1563   H         1 RES1   0.0000
  5707 H13     32.1829  21.3269  53.0692   H         1 RES1   0.0000
  5708 H14     30.2389  23.2601  53.0692   H         1 RES1   0.0000
  5709 H15     30.2389  21.3269  45.0222   H         1 RES1   0.0000
  5710 H16     32.1829  23.2601  45.0222   H         1 RES1   0.0000
  5711 H17     35.2344  32.1829  39.1617   H         1 RES1   0.0000
  5712 H18     35.2344  30.2389  41.0949   H         1 RES1   0.0000
  5713 H19     27.1874  30.2389  39.1617   H         1 RES1   0.0000
  5714 H20     27.1874  32.1829  41.0949   H         1 RES1   0.0000
  5715 H21     21.3269  35.2344  50.0177   H         1 RES1   0.0000
  5716 H22     23.2601  35.2344  48.0737   H         1 RES1   0.0000
  5717 H23     21.3269  27.1874  48.0737   H         1 RES1   0.0000
  5718 H24     23.2601  27.1874  50.0177   H         1 RES1   0.0000
  5719 C49     21.2341  23.8951  35.6696   C.2       1 RES1   0.0000
  5720 C50     23.3529  20.6919  35.6696   C.2       1 RES1   0.0000
  5721 C51     23.3529  23.8951  44.5870   C.2       1 RES1   0.0000
  5722 C52     21.2341  20.6919  44.5870   C.2       1 RES1   0.0000
  5723 C53     17.8348  21.2341  41.7299   C.2       1 RES1   0.0000
  5724 C54     17.8348  23.3529  38.5267   C.2       1 RES1   0.0000
  5725 C55     26.7522  23.3529  41.7299   C.2       1 RES1   0.0000
  5726 C56     26.7522  21.2341  38.5267   C.2       1 RES1   0.0000
  5727 C57     23.8951  17.8348  39.0689   C.2       1 RES1   0.0000
  5728 C58     20.6919  17.8348  41.1877   C.2       1 RES1   0.0000
  5729 C59     23.8951  26.7522  41.1877   C.2       1 RES1   0.0000
  5730 C60     20.6919  26.7522  39.0689   C.2       1 RES1   0.0000
  5731 C61     32.2703  29.6093  53.5044   C.2       1 RES1   0.0000
  5732 C62     30.1515  32.8125  53.5044   C.2       1 RES1   0.0000
  5733 C63     30.1515  29.6093  44.5870   C.2       1 RES1   0.0000
  5734 C64     32.2703  32.8125  44.5870   C.2       1 RES1   0.0000
  5735 C65     35.6696  32.2703  47.4441   C.2       1 RES1   0.0000
  5736 C66     35.6696  30.1515  50.6473   C.2       1 RES1   0.0000
  5737 C67     26.7522  30.1515  47.4441   C.2       1 RES1   0.0000
  5738 C68     26.7522  32.2703  50.6473   C.2       1 RES1   0.0000
  5739 C69     29.6093  35.6696  50.1051   C.2       1 RES1   0.0000
  5740 C70     32.8125  35.6696  47.9863   C.2       1 RES1   0.0000
  5741 C71     29.6093  26.7522  47.9863   C.2       1 RES1   0.0000
  5742 C72     32.8125  26.7522  50.1051   C.2       1 RES1   0.0000
  5743 C73     22.4130  22.9445  35.6714   C.2       1 RES1   0.0000
  5744 C74     22.1740  21.6425  35.6714   C.2       1 RES1   0.0000
  5745 C75     22.1740  22.9445  44.5852   C.2       1 RES1   0.0000
  5746 C76     22.4130  21.6425  44.5852   C.2       1 RES1   0.0000
  5747 C77     17.8366  22.4130  40.7793   C.2       1 RES1   0.0000
  5748 C78     17.8366  22.1740  39.4773   C.2       1 RES1   0.0000
  5749 C79     26.7504  22.1740  40.7793   C.2       1 RES1   0.0000
  5750 C80     26.7504  22.4130  39.4773   C.2       1 RES1   0.0000
  5751 C81     22.9445  17.8366  40.2478   C.2       1 RES1   0.0000
  5752 C82     21.6425  17.8366  40.0088   C.2       1 RES1   0.0000
  5753 C83     22.9445  26.7504  40.0088   C.2       1 RES1   0.0000
  5754 C84     21.6425  26.7504  40.2478   C.2       1 RES1   0.0000
  5755 C85     31.0914  30.5599  53.5026   C.2       1 RES1   0.0000
  5756 C86     31.3304  31.8619  53.5026   C.2       1 RES1   0.0000
  5757 C87     31.3304  30.5599  44.5888   C.2       1 RES1   0.0000
  5758 C88     31.0914  31.8619  44.5888   C.2       1 RES1   0.0000
  5759 C89     35.6678  31.0914  48.3947   C.2       1 RES1   0.0000
  5760 C90     35.6678  31.3304  49.6967   C.2       1 RES1   0.0000
  5761 C91     26.7540  31.3304  48.3947   C.2       1 RES1   0.0000
  5762 C92     26.7540  31.0914  49.6967   C.2       1 RES1   0.0000
  5763 C93     30.5599  35.6678  48.9262   C.2       1 RES1   0.0000
  5764 C94     31.8619  35.6678  49.1652   C.2       1 RES1   0.0000
  5765 C95     30.5599  26.7540  49.1652   C.2       1 RES1   0.0000
  5766 C96     31.8619  26.7540  48.9262   C.2       1 RES1   0.0000
  5767 H25     23.2851  23.2673  35.6714   H         1 RES1   0.0000
  5768 H26     21.3019  21.3197  35.6714   H         1 RES1   0.0000
  5769 H27     21.3019  23.2673  44.5852   H         1 RES1   0.0000
  5770 H28     23.2851  21.3197  44.5852   H         1 RES1   0.0000
  5771 H29     17.8366  23.2851  41.1021   H         1 RES1   0.0000
  5772 H30     17.8366  21.3019  39.1545   H         1 RES1   0.0000
  5773 H31     26.7504  21.3019  41.1021   H         1 RES1   0.0000
  5774 H32     26.7504  23.2851  39.1545   H         1 RES1   0.0000
  5775 H33     23.2673  17.8366  41.1199   H         1 RES1   0.0000
  5776 H34     21.3197  17.8366  39.1367   H         1 RES1   0.0000
  5777 H35     23.2673  26.7504  39.1367   H         1 RES1   0.0000
  5778 H36     21.3197  26.7504  41.1199   H         1 RES1   0.0000
  5779 H37     30.2193  30.2371  53.5026   H         1 RES1   0.0000
  5780 H38     32.2025  32.1847  53.5026   H         1 RES1   0.0000
  5781 H39     32.2025  30.2371  44.5888   H         1 RES1   0.0000
  5782 H40     30.2193  32.1847  44.5888   H         1 RES1   0.0000
  5783 H41     35.6678  30.2193  48.0719   H         1 RES1   0.0000
  5784 H42     35.6678  32.2025  50.0195   H         1 RES1   0.0000
  5785 H43     26.7540  32.2025  48.0719   H         1 RES1   0.0000
  5786 H44     26.7540  30.2193  50.0195   H         1 RES1   0.0000
  5787 H45     30.2371  35.6678  48.0541   H         1 RES1   0.0000
  5788 H46     32.1847  35.6678  50.0373   H         1 RES1   0.0000
  5789 H47     30.2371  26.7540  50.0373   H         1 RES1   0.0000
  5790 H48     32.1847  26.7540  48.0541   H         1 RES1   0.0000
  5791 O97     19.1992  28.3877  52.3505   O.3       1 RES1   0.0000
  5792 O98     25.3878  34.0341  52.3505   O.3       1 RES1   0.0000
  5793 O99     25.3878  28.3877  45.7409   O.3       1 RES1   0.0000
  5794 O101    34.5157  19.1992  46.2225   O.3       1 RES1   0.0000
  5795 O102    34.5157  25.3878  51.8689   O.3       1 RES1   0.0000
  5796 O103    27.9061  25.3878  46.2225   O.3       1 RES1   0.0000
  5797 O105    28.3877  34.5157  37.0340   O.3       1 RES1   0.0000
  5798 O106    34.0341  34.5157  43.2226   O.3       1 RES1   0.0000
  5799 O107    28.3877  27.9061  43.2226   O.3       1 RES1   0.0000
  5800 O111    28.1166  25.1167  43.4331   O.3       1 RES1   0.0000
  5801 O112    34.3052  19.4703  43.4331   O.3       1 RES1   0.0000
  5802 O115    25.5983  28.1166  42.9515   O.3       1 RES1   0.0000
  5803 O116    25.5983  34.3052  37.3051   O.3       1 RES1   0.0000
  5804 O119    25.1167  25.5983  45.9514   O.3       1 RES1   0.0000
  5805 O120    19.4703  25.5983  52.1400   O.3       1 RES1   0.0000
  5806 O123    25.6892  25.6892  43.5240   O.3       1 RES1   0.0000
  5807 O125    34.6066  27.8152  52.4414   O.3       1 RES1   0.0000
  5808 O126    27.8152  34.6066  52.4414   O.3       1 RES1   0.0000
  5809 O127    27.8152  27.8152  45.6500   O.3       1 RES1   0.0000
  5810 O128    34.6066  34.6066  45.6500   O.3       1 RES1   0.0000
  5811 O129    18.8978  27.9757  52.6198   O.3       1 RES1   0.0000
  5812 O130    25.6892  34.4461  52.6198   O.3       1 RES1   0.0000
  5813 O131    25.6892  27.9757  45.4716   O.3       1 RES1   0.0000
  5814 O133    34.7850  18.8978  45.8105   O.3       1 RES1   0.0000
  5815 O134    34.7850  25.6892  52.2809   O.3       1 RES1   0.0000
  5816 O135    27.6368  25.6892  45.8105   O.3       1 RES1   0.0000
  5817 O137    27.9757  34.7850  36.7326   O.3       1 RES1   0.0000
  5818 O138    34.4461  34.7850  43.5240   O.3       1 RES1   0.0000
  5819 O139    27.9757  27.6368  43.5240   O.3       1 RES1   0.0000
  5820 O143    27.8152  25.5287  43.7024   O.3       1 RES1   0.0000
  5821 O144    34.6066  19.0583  43.7024   O.3       1 RES1   0.0000
  5822 O147    25.8676  27.8152  43.3635   O.3       1 RES1   0.0000
  5823 O148    25.8676  34.6066  36.8931   O.3       1 RES1   0.0000
  5824 O151    25.5287  25.8676  45.6500   O.3       1 RES1   0.0000
  5825 O152    19.0583  25.8676  52.4414   O.3       1 RES1   0.0000
  5826 O155    25.3522  25.3522  43.1870   O.3       1 RES1   0.0000
  5827 O157    34.2696  28.1522  52.1044   O.3       1 RES1   0.0000
  5828 O158    28.1522  34.2696  52.1044   O.3       1 RES1   0.0000
  5829 O159    28.1522  28.1522  45.9870   O.3       1 RES1   0.0000
  5830 O160    34.2696  34.2696  45.9870   O.3       1 RES1   0.0000
  5831 Zr1     20.2933  26.9507  53.7163   Zr        1 RES1   0.0000
  5832 Zr1     38.1281  26.9507  35.8815   Zr        1 RES1   0.0000
  5833 Zr2     24.2937  35.4711  53.7163   Zr        1 RES1   0.0000
  5834 Zr4     38.1281  35.4711  44.3751   Zr        1 RES1   0.0000
  5835 Zr5     35.8815  20.2933  44.7855   Zr        1 RES1   0.0000
  5836 Zr6     35.8815  24.2937  53.3059   Zr        1 RES1   0.0000
  5837 Zr8     26.5403  38.1281  53.3059   Zr        1 RES1   0.0000
  5838 Zr9     26.9507  18.0467  55.9629   Zr        1 RES1   0.0000
  5839 Zr9     26.9507  35.8815  38.1281   Zr        1 RES1   0.0000
  5840 Zr10    35.4711  35.8815  42.1285   Zr        1 RES1   0.0000
  5841 Zr12    35.4711  26.5403  55.9629   Zr        1 RES1   0.0000
  5842 Zr14    29.2107  35.8681  53.2925   Zr        1 RES1   0.0000
  5843 Zr16    33.2111  35.8681  44.7989   Zr        1 RES1   0.0000
  5844 Zr18    35.4577  29.2107  53.7029   Zr        1 RES1   0.0000
  5845 Zr20    26.9641  33.2111  53.7029   Zr        1 RES1   0.0000
  5846 Zr22    35.8681  35.4577  47.0455   Zr        1 RES1   0.0000
  5847 Zr24    35.8681  26.9641  51.0459   Zr        1 RES1   0.0000
  5848 O2      23.0247  37.3015  35.8123   O.co2     1 RES1   0.0000
  5849 O4      21.5623  37.3015  44.4443   O.co2     1 RES1   0.0000
  5850 O6      17.9775  23.0247  55.1363   O.2       1 RES1   0.0000
  5851 O8      26.6095  21.5623  55.1363   O.2       1 RES1   0.0000
  5852 O10     37.3015  17.9775  40.8595   O.co2     1 RES1   0.0000
  5853 O12     37.3015  26.6095  39.3971   O.co2     1 RES1   0.0000
  5854 O50     23.3707  35.5394  37.9221   O.co2     1 RES1   0.0000
  5855 O52     21.2163  35.5394  42.3345   O.co2     1 RES1   0.0000
  5856 O54     20.0873  23.3707  53.3742   O.2       1 RES1   0.0000
  5857 O56     24.4997  21.2163  53.3742   O.2       1 RES1   0.0000
  5858 O58     35.5394  20.0873  41.2055   O.co2     1 RES1   0.0000
  5859 O60     35.5394  24.4997  39.0511   O.co2     1 RES1   0.0000
  5860 O85     31.9457  26.3259  55.1202   O.2       1 RES1   0.0000
  5861 O86     30.4761  18.2611  55.1202   O.2       1 RES1   0.0000
  5862 O89     37.2854  31.9457  44.1607   O.co2     1 RES1   0.0000
  5863 O90     37.2854  30.4761  36.0959   O.co2     1 RES1   0.0000
  5864 O93     26.3259  37.2854  49.7805   O.co2     1 RES1   0.0000
  5865 O94     18.2611  37.2854  48.3109   O.co2     1 RES1   0.0000
  5866 O97     37.0340  28.3877  34.5157   O.3       1 RES1   0.0000
  5867 O100    37.0340  34.0341  45.7409   O.3       1 RES1   0.0000
  5868 O104    27.9061  37.0340  51.8689   O.3       1 RES1   0.0000
  5869 O105    28.3877  16.6809  54.8688   O.3       1 RES1   0.0000
  5870 O108    34.0341  27.9061  54.8688   O.3       1 RES1   0.0000
  5871 O109    34.3052  25.1167  54.6583   O.3       1 RES1   0.0000
  5872 O110    28.1166  19.4703  54.6583   O.3       1 RES1   0.0000
  5873 O113    36.8235  34.3052  42.9515   O.3       1 RES1   0.0000
  5874 O114    36.8235  28.1166  37.3051   O.3       1 RES1   0.0000
  5875 O117    25.1167  36.8235  52.1400   O.3       1 RES1   0.0000
  5876 O118    19.4703  36.8235  45.9514   O.3       1 RES1   0.0000
  5877 O121    18.8978  25.6892  54.5674   O.3       1 RES1   0.0000
  5878 O121    36.7326  25.6892  36.7326   O.3       1 RES1   0.0000
  5879 O122    25.6892  18.8978  54.5674   O.3       1 RES1   0.0000
  5880 O122    25.6892  36.7326  36.7326   O.3       1 RES1   0.0000
  5881 O124    36.7326  18.8978  43.5240   O.3       1 RES1   0.0000
  5882 O129    36.7326  27.9757  34.7850   O.3       1 RES1   0.0000
  5883 O132    36.7326  34.4461  45.4716   O.3       1 RES1   0.0000
  5884 O136    27.6368  36.7326  52.2809   O.3       1 RES1   0.0000
  5885 O137    27.9757  16.9502  54.5674   O.3       1 RES1   0.0000
  5886 O140    34.4461  27.6368  54.5674   O.3       1 RES1   0.0000
  5887 O141    34.6066  25.5287  54.3890   O.3       1 RES1   0.0000
  5888 O142    27.8152  19.0583  54.3890   O.3       1 RES1   0.0000
  5889 O145    36.5542  34.6066  43.3635   O.3       1 RES1   0.0000
  5890 O146    36.5542  27.8152  36.8931   O.3       1 RES1   0.0000
  5891 O149    25.5287  36.5542  52.4414   O.3       1 RES1   0.0000
  5892 O150    19.0583  36.5542  45.6500   O.3       1 RES1   0.0000
  5893 O153    19.2348  25.3522  54.9044   O.3       1 RES1   0.0000
  5894 O153    37.0696  25.3522  37.0696   O.3       1 RES1   0.0000
  5895 O154    25.3522  19.2348  54.9044   O.3       1 RES1   0.0000
  5896 O154    25.3522  37.0696  37.0696   O.3       1 RES1   0.0000
  5897 O156    37.0696  19.2348  43.1870   O.3       1 RES1   0.0000
  5898 Zr2     24.2937  53.3059   0.2119   Zr        1 RES1   0.0000
  5899 Zr3     24.2937  44.7855   8.7055   Zr        1 RES1   0.0000
  5900 Zr7     26.5403  42.1285   9.1159   Zr        1 RES1   0.0000
  5901 Zr11    26.9507  44.3751   6.4589   Zr        1 RES1   0.0000
  5902 Zr12    35.4711  44.3751   2.4585   Zr        1 RES1   0.0000
  5903 Zr13    33.2111  44.3885  17.6229   Zr        1 RES1   0.0000
  5904 Zr15    29.2107  44.3885   9.1293   Zr        1 RES1   0.0000
  5905 Zr17    35.4577  51.0459   8.7189   Zr        1 RES1   0.0000
  5906 Zr18    35.4577  47.0455   0.1985   Zr        1 RES1   0.0000
  5907 Zr19    26.9641  47.0455   8.7189   Zr        1 RES1   0.0000
  5908 Zr20    26.9641  51.0459   0.1985   Zr        1 RES1   0.0000
  5909 Zr21    26.5537  53.2925  15.3763   Zr        1 RES1   0.0000
  5910 Zr23    26.5537  44.7989  11.3759   Zr        1 RES1   0.0000
  5911 O1      21.5623  42.9551   0.1427   O.co2     1 RES1   0.0000
  5912 O3      23.0247  42.9551   8.7747   O.co2     1 RES1   0.0000
  5913 O5      17.9775  39.3971   7.2855   O.co2     1 RES1   0.0000
  5914 O6      17.9775  40.8595   1.6319   O.co2     1 RES1   0.0000
  5915 O7      26.6095  40.8595   7.2855   O.co2     1 RES1   0.0000
  5916 O8      26.6095  39.3971   1.6319   O.co2     1 RES1   0.0000
  5917 O9      25.1203  35.8123   3.7275   O.co2     1 RES1   0.0000
  5918 O11     25.1203  44.4443   5.1899   O.co2     1 RES1   0.0000
  5919 O13     31.9421  46.2189  17.6921   O.co2     1 RES1   0.0000
  5920 O14     30.4797  51.8725  17.6921   O.co2     1 RES1   0.0000
  5921 O15     30.4797  46.2189   9.0601   O.co2     1 RES1   0.0000
  5922 O16     31.9421  51.8725   9.0601   O.co2     1 RES1   0.0000
  5923 O17     35.5269  49.7769  10.5493   O.co2     1 RES1   0.0000
  5924 O18     35.5269  48.3145  16.2029   O.co2     1 RES1   0.0000
  5925 O19     26.8949  48.3145  10.5493   O.co2     1 RES1   0.0000
  5926 O20     26.8949  49.7769  16.2029   O.co2     1 RES1   0.0000
  5927 O21     28.3841  53.3617  14.1073   O.co2     1 RES1   0.0000
  5928 O22     34.0377  53.3617  12.6449   O.co2     1 RES1   0.0000
  5929 O23     28.3841  44.7297  12.6449   O.co2     1 RES1   0.0000
  5930 O24     34.0377  44.7297  14.1073   O.co2     1 RES1   0.0000
  5931 O25     21.2305  46.8092   0.4387   O.co2     1 RES1   0.0000
  5932 O26     23.3565  51.2822   0.4387   O.co2     1 RES1   0.0000
  5933 O27     23.3565  46.8092   8.4787   O.co2     1 RES1   0.0000
  5934 O28     21.2305  51.2822   8.4787   O.co2     1 RES1   0.0000
  5935 O29     18.2735  39.0653  11.1396   O.co2     1 RES1   0.0000
  5936 O30     18.2735  41.1913  15.6126   O.co2     1 RES1   0.0000
  5937 O31     26.3135  41.1913  11.1396   O.co2     1 RES1   0.0000
  5938 O32     26.3135  39.0653  15.6126   O.co2     1 RES1   0.0000
  5939 O33     28.9744  36.1083   3.3957   O.co2     1 RES1   0.0000
  5940 O34     33.4474  36.1083   5.5217   O.co2     1 RES1   0.0000
  5941 O35     28.9744  44.1483   5.5217   O.co2     1 RES1   0.0000
  5942 O36     33.4474  44.1483   3.3957   O.co2     1 RES1   0.0000
  5943 O37     32.2739  42.3648  17.3961   O.co2     1 RES1   0.0000
  5944 O38     30.1479  37.8918  17.3961   O.co2     1 RES1   0.0000
  5945 O39     30.1479  42.3648   9.3561   O.co2     1 RES1   0.0000
  5946 O40     32.2739  37.8918   9.3561   O.co2     1 RES1   0.0000
  5947 O41     35.2309  50.1087   6.6952   O.co2     1 RES1   0.0000
  5948 O42     35.2309  47.9827   2.2222   O.co2     1 RES1   0.0000
  5949 O43     27.1909  47.9827   6.6952   O.co2     1 RES1   0.0000
  5950 O44     27.1909  50.1087   2.2222   O.co2     1 RES1   0.0000
  5951 O45     24.5300  53.0657  14.4391   O.co2     1 RES1   0.0000
  5952 O46     20.0570  53.0657  12.3131   O.co2     1 RES1   0.0000
  5953 O47     24.5300  45.0257  12.3131   O.co2     1 RES1   0.0000
  5954 O48     20.0570  45.0257  14.4391   O.co2     1 RES1   0.0000
  5955 O49     21.2163  44.7172   2.2525   O.co2     1 RES1   0.0000
  5956 O51     23.3707  44.7172   6.6649   O.co2     1 RES1   0.0000
  5957 O53     20.0873  39.0511   9.0476   O.co2     1 RES1   0.0000
  5958 O54     20.0873  41.2055  -0.1302   O.co2     1 RES1   0.0000
  5959 O55     24.4997  41.2055   9.0476   O.co2     1 RES1   0.0000
  5960 O56     24.4997  39.0511  -0.1302   O.co2     1 RES1   0.0000
  5961 O57     26.8824  37.9221   3.3815   O.co2     1 RES1   0.0000
  5962 O59     26.8824  42.3345   5.5359   O.co2     1 RES1   0.0000
  5963 O61     32.2881  44.4568  15.5823   O.co2     1 RES1   0.0000
  5964 O62     30.1337  53.6346  15.5823   O.co2     1 RES1   0.0000
  5965 O63     30.1337  44.4568  11.1699   O.co2     1 RES1   0.0000
  5966 O64     32.2881  53.6346  11.1699   O.co2     1 RES1   0.0000
  5967 O65     33.4171  50.1229   8.7872   O.co2     1 RES1   0.0000
  5968 O66     33.4171  47.9685  17.9650   O.co2     1 RES1   0.0000
  5969 O67     29.0047  47.9685   8.7872   O.co2     1 RES1   0.0000
  5970 O68     29.0047  50.1229  17.9650   O.co2     1 RES1   0.0000
  5971 O69     26.6220  51.2519  14.4533   O.co2     1 RES1   0.0000
  5972 O70     35.7998  51.2519  12.2989   O.co2     1 RES1   0.0000
  5973 O71     26.6220  46.8395  12.2989   O.co2     1 RES1   0.0000
  5974 O72     35.7998  46.8395  14.4533   O.co2     1 RES1   0.0000
  5975 O73     21.5587  45.0133  16.2190   O.co2     1 RES1   0.0000
  5976 O74     23.0283  53.0781  16.2190   O.co2     1 RES1   0.0000
  5977 O75     23.0283  45.0133  10.5332   O.co2     1 RES1   0.0000
  5978 O76     21.5587  53.0781  10.5332   O.co2     1 RES1   0.0000
  5979 O77     34.0538  39.3935   9.3437   O.co2     1 RES1   0.0000
  5980 O78     34.0538  40.8631  17.4085   O.co2     1 RES1   0.0000
  5981 O79     28.3680  40.8631   9.3437   O.co2     1 RES1   0.0000
  5982 O80     28.3680  39.3935  17.4085   O.co2     1 RES1   0.0000
  5983 O81     27.1785  51.8886   3.7239   O.co2     1 RES1   0.0000
  5984 O82     35.2433  51.8886   5.1935   O.co2     1 RES1   0.0000
  5985 O83     27.1785  46.2028   5.1935   O.co2     1 RES1   0.0000
  5986 O84     35.2433  46.2028   3.7239   O.co2     1 RES1   0.0000
  5987 O85     31.9457  44.1607   1.6158   O.co2     1 RES1   0.0000
  5988 O86     30.4761  36.0959   1.6158   O.co2     1 RES1   0.0000
  5989 O87     30.4761  44.1607   7.3016   O.co2     1 RES1   0.0000
  5990 O88     31.9457  36.0959   7.3016   O.co2     1 RES1   0.0000
  5991 O91     25.1364  48.3109   8.4911   O.co2     1 RES1   0.0000
  5992 O92     25.1364  49.7805   0.4263   O.co2     1 RES1   0.0000
  5993 O95     26.3259  42.9712  12.6413   O.co2     1 RES1   0.0000
  5994 O96     18.2611  42.9712  14.1109   O.co2     1 RES1   0.0000
  5995 C1      20.6955  47.9596   0.4280   C.2       1 RES1   0.0000
  5996 C2      23.8915  50.1318   0.4280   C.2       1 RES1   0.0000
  5997 C3      23.8915  47.9596   8.4894   C.2       1 RES1   0.0000
  5998 C4      20.6955  50.1318   8.4894   C.2       1 RES1   0.0000
  5999 C5      18.2628  38.5303  12.2900   C.2       1 RES1   0.0000
  6000 C6      18.2628  41.7263  14.4622   C.2       1 RES1   0.0000
  6001 C7      26.3242  41.7263  12.2900   C.2       1 RES1   0.0000
  6002 C8      26.3242  38.5303  14.4622   C.2       1 RES1   0.0000
  6003 C9      30.1248  36.0976   2.8607   C.2       1 RES1   0.0000
  6004 C10     32.2970  36.0976   6.0567   C.2       1 RES1   0.0000
  6005 C11     30.1248  44.1590   6.0567   C.2       1 RES1   0.0000
  6006 C12     32.2970  44.1590   2.8607   C.2       1 RES1   0.0000
  6007 C13     32.8089  41.2144  17.4068   C.2       1 RES1   0.0000
  6008 C14     29.6129  39.0422  17.4068   C.2       1 RES1   0.0000
  6009 C15     29.6129  41.2144   9.3454   C.2       1 RES1   0.0000
  6010 C16     32.8089  39.0422   9.3454   C.2       1 RES1   0.0000
  6011 C17     35.2416  50.6437   5.5448   C.2       1 RES1   0.0000
  6012 C18     35.2416  47.4477   3.3726   C.2       1 RES1   0.0000
  6013 C19     27.1802  47.4477   5.5448   C.2       1 RES1   0.0000
  6014 C20     27.1802  50.6437   3.3726   C.2       1 RES1   0.0000
  6015 C21     23.3796  53.0764  14.9741   C.2       1 RES1   0.0000
  6016 C22     21.2074  53.0764  11.7781   C.2       1 RES1   0.0000
  6017 C23     23.3796  45.0150  11.7781   C.2       1 RES1   0.0000
  6018 C24     21.2074  45.0150  14.9741   C.2       1 RES1   0.0000
  6019 C25     21.6550  49.1438   0.4334   C.2       1 RES1   0.0000
  6020 C26     22.9320  48.9476   0.4334   C.2       1 RES1   0.0000
  6021 C27     22.9320  49.1438   8.4840   C.2       1 RES1   0.0000
  6022 C28     21.6550  48.9476   8.4840   C.2       1 RES1   0.0000
  6023 C29     18.2682  39.4898  13.4742   C.2       1 RES1   0.0000
  6024 C30     18.2682  40.7668  13.2780   C.2       1 RES1   0.0000
  6025 C31     26.3188  40.7668  13.4742   C.2       1 RES1   0.0000
  6026 C32     26.3188  39.4898  13.2780   C.2       1 RES1   0.0000
  6027 C33     31.3090  36.1030   3.8202   C.2       1 RES1   0.0000
  6028 C34     31.1128  36.1030   5.0972   C.2       1 RES1   0.0000
  6029 C35     31.3090  44.1536   5.0972   C.2       1 RES1   0.0000
  6030 C36     31.1128  44.1536   3.8202   C.2       1 RES1   0.0000
  6031 C37     31.8494  40.0302  17.4014   C.2       1 RES1   0.0000
  6032 C38     30.5724  40.2264  17.4014   C.2       1 RES1   0.0000
  6033 C39     30.5724  40.0302   9.3508   C.2       1 RES1   0.0000
  6034 C40     31.8494  40.2264   9.3508   C.2       1 RES1   0.0000
  6035 C41     35.2362  49.6842   4.3606   C.2       1 RES1   0.0000
  6036 C42     35.2362  48.4072   4.5568   C.2       1 RES1   0.0000
  6037 C43     27.1856  48.4072   4.3606   C.2       1 RES1   0.0000
  6038 C44     27.1856  49.6842   4.5568   C.2       1 RES1   0.0000
  6039 C45     22.1954  53.0710  14.0146   C.2       1 RES1   0.0000
  6040 C46     22.3916  53.0710  12.7376   C.2       1 RES1   0.0000
  6041 C47     22.1954  45.0204  12.7376   C.2       1 RES1   0.0000
  6042 C48     22.3916  45.0204  14.0146   C.2       1 RES1   0.0000
  6043 H1      21.3215  50.0123   0.4352   H         1 RES1   0.0000
  6044 H2      23.2655  48.0791   0.4352   H         1 RES1   0.0000
  6045 H3      23.2655  50.0123   8.4822   H         1 RES1   0.0000
  6046 H4      21.3215  48.0791   8.4822   H         1 RES1   0.0000
  6047 H5      18.2700  39.1563  14.3427   H         1 RES1   0.0000
  6048 H6      18.2700  41.1003  12.4095   H         1 RES1   0.0000
  6049 H7      26.3170  41.1003  14.3427   H         1 RES1   0.0000
  6050 H8      26.3170  39.1563  12.4095   H         1 RES1   0.0000
  6051 H9      32.1775  36.1048   3.4867   H         1 RES1   0.0000
  6052 H10     30.2443  36.1048   5.4307   H         1 RES1   0.0000
  6053 H11     32.1775  44.1518   5.4307   H         1 RES1   0.0000
  6054 H12     30.2443  44.1518   3.4867   H         1 RES1   0.0000
  6055 H13     32.1829  39.1617  17.3996   H         1 RES1   0.0000
  6056 H14     30.2389  41.0949  17.3996   H         1 RES1   0.0000
  6057 H15     30.2389  39.1617   9.3526   H         1 RES1   0.0000
  6058 H16     32.1829  41.0949   9.3526   H         1 RES1   0.0000
  6059 H17     35.2344  50.0177   3.4921   H         1 RES1   0.0000
  6060 H18     35.2344  48.0737   5.4253   H         1 RES1   0.0000
  6061 H19     27.1874  48.0737   3.4921   H         1 RES1   0.0000
  6062 H20     27.1874  50.0177   5.4253   H         1 RES1   0.0000
  6063 H21     21.3269  53.0692  14.3481   H         1 RES1   0.0000
  6064 H22     23.2601  53.0692  12.4041   H         1 RES1   0.0000
  6065 H23     21.3269  45.0222  12.4041   H         1 RES1   0.0000
  6066 H24     23.2601  45.0222  14.3481   H         1 RES1   0.0000
  6067 C49     21.2341  41.7299   0.0000   C.2       1 RES1   0.0000
  6068 C50     23.3529  38.5267   0.0000   C.2       1 RES1   0.0000
  6069 C51     23.3529  41.7299   8.9174   C.2       1 RES1   0.0000
  6070 C52     21.2341  38.5267   8.9174   C.2       1 RES1   0.0000
  6071 C53     17.8348  39.0689   6.0603   C.2       1 RES1   0.0000
  6072 C54     17.8348  41.1877   2.8571   C.2       1 RES1   0.0000
  6073 C55     26.7522  41.1877   6.0603   C.2       1 RES1   0.0000
  6074 C56     26.7522  39.0689   2.8571   C.2       1 RES1   0.0000
  6075 C57     23.8951  35.6696   3.3993   C.2       1 RES1   0.0000
  6076 C58     20.6919  35.6696   5.5181   C.2       1 RES1   0.0000
  6077 C59     23.8951  44.5870   5.5181   C.2       1 RES1   0.0000
  6078 C60     20.6919  44.5870   3.3993   C.2       1 RES1   0.0000
  6079 C61     32.2703  47.4441  17.8348   C.2       1 RES1   0.0000
  6080 C62     30.1515  50.6473  17.8348   C.2       1 RES1   0.0000
  6081 C63     30.1515  47.4441   8.9174   C.2       1 RES1   0.0000
  6082 C64     32.2703  50.6473   8.9174   C.2       1 RES1   0.0000
  6083 C65     35.6696  50.1051  11.7745   C.2       1 RES1   0.0000
  6084 C66     35.6696  47.9863  14.9777   C.2       1 RES1   0.0000
  6085 C67     26.7522  47.9863  11.7745   C.2       1 RES1   0.0000
  6086 C68     26.7522  50.1051  14.9777   C.2       1 RES1   0.0000
  6087 C69     29.6093  53.5044  14.4355   C.2       1 RES1   0.0000
  6088 C70     32.8125  53.5044  12.3167   C.2       1 RES1   0.0000
  6089 C71     29.6093  44.5870  12.3167   C.2       1 RES1   0.0000
  6090 C72     32.8125  44.5870  14.4355   C.2       1 RES1   0.0000
  6091 C73     22.4130  40.7793   0.0018   C.2       1 RES1   0.0000
  6092 C74     22.1740  39.4773   0.0018   C.2       1 RES1   0.0000
  6093 C75     22.1740  40.7793   8.9156   C.2       1 RES1   0.0000
  6094 C76     22.4130  39.4773   8.9156   C.2       1 RES1   0.0000
  6095 C77     17.8366  40.2478   5.1097   C.2       1 RES1   0.0000
  6096 C78     17.8366  40.0088   3.8077   C.2       1 RES1   0.0000
  6097 C79     26.7504  40.0088   5.1097   C.2       1 RES1   0.0000
  6098 C80     26.7504  40.2478   3.8077   C.2       1 RES1   0.0000
  6099 C81     22.9445  35.6714   4.5782   C.2       1 RES1   0.0000
  6100 C82     21.6425  35.6714   4.3392   C.2       1 RES1   0.0000
  6101 C83     22.9445  44.5852   4.3392   C.2       1 RES1   0.0000
  6102 C84     21.6425  44.5852   4.5782   C.2       1 RES1   0.0000
  6103 C85     31.0914  48.3947  17.8330   C.2       1 RES1   0.0000
  6104 C86     31.3304  49.6967  17.8330   C.2       1 RES1   0.0000
  6105 C87     31.3304  48.3947   8.9192   C.2       1 RES1   0.0000
  6106 C88     31.0914  49.6967   8.9192   C.2       1 RES1   0.0000
  6107 C89     35.6678  48.9262  12.7251   C.2       1 RES1   0.0000
  6108 C90     35.6678  49.1652  14.0271   C.2       1 RES1   0.0000
  6109 C91     26.7540  49.1652  12.7251   C.2       1 RES1   0.0000
  6110 C92     26.7540  48.9262  14.0271   C.2       1 RES1   0.0000
  6111 C93     30.5599  53.5026  13.2566   C.2       1 RES1   0.0000
  6112 C94     31.8619  53.5026  13.4956   C.2       1 RES1   0.0000
  6113 C95     30.5599  44.5888  13.4956   C.2       1 RES1   0.0000
  6114 C96     31.8619  44.5888  13.2566   C.2       1 RES1   0.0000
  6115 H25     23.2851  41.1021   0.0018   H         1 RES1   0.0000
  6116 H26     21.3019  39.1545   0.0018   H         1 RES1   0.0000
  6117 H27     21.3019  41.1021   8.9156   H         1 RES1   0.0000
  6118 H28     23.2851  39.1545   8.9156   H         1 RES1   0.0000
  6119 H29     17.8366  41.1199   5.4325   H         1 RES1   0.0000
  6120 H30     17.8366  39.1367   3.4849   H         1 RES1   0.0000
  6121 H31     26.7504  39.1367   5.4325   H         1 RES1   0.0000
  6122 H32     26.7504  41.1199   3.4849   H         1 RES1   0.0000
  6123 H33     23.2673  35.6714   5.4503   H         1 RES1   0.0000
  6124 H34     21.3197  35.6714   3.4671   H         1 RES1   0.0000
  6125 H35     23.2673  44.5852   3.4671   H         1 RES1   0.0000
  6126 H36     21.3197  44.5852   5.4503   H         1 RES1   0.0000
  6127 H37     30.2193  48.0719  17.8330   H         1 RES1   0.0000
  6128 H38     32.2025  50.0195  17.8330   H         1 RES1   0.0000
  6129 H39     32.2025  48.0719   8.9192   H         1 RES1   0.0000
  6130 H40     30.2193  50.0195   8.9192   H         1 RES1   0.0000
  6131 H41     35.6678  48.0541  12.4023   H         1 RES1   0.0000
  6132 H42     35.6678  50.0373  14.3499   H         1 RES1   0.0000
  6133 H43     26.7540  50.0373  12.4023   H         1 RES1   0.0000
  6134 H44     26.7540  48.0541  14.3499   H         1 RES1   0.0000
  6135 H45     30.2371  53.5026  12.3845   H         1 RES1   0.0000
  6136 H46     32.1847  53.5026  14.3677   H         1 RES1   0.0000
  6137 H47     30.2371  44.5888  14.3677   H         1 RES1   0.0000
  6138 H48     32.1847  44.5888  12.3845   H         1 RES1   0.0000
  6139 O98     25.3878  51.8689  16.6809   O.3       1 RES1   0.0000
  6140 O99     25.3878  46.2225  10.0713   O.3       1 RES1   0.0000
  6141 O101    34.5157  37.0340  10.5529   O.3       1 RES1   0.0000
  6142 O102    34.5157  43.2226  16.1993   O.3       1 RES1   0.0000
  6143 O103    27.9061  43.2226  10.5529   O.3       1 RES1   0.0000
  6144 O105    28.3877  52.3505   1.3644   O.3       1 RES1   0.0000
  6145 O106    34.0341  52.3505   7.5530   O.3       1 RES1   0.0000
  6146 O107    28.3877  45.7409   7.5530   O.3       1 RES1   0.0000
  6147 O108    34.0341  45.7409   1.3644   O.3       1 RES1   0.0000
  6148 O109    34.3052  42.9515   1.1539   O.3       1 RES1   0.0000
  6149 O110    28.1166  37.3051   1.1539   O.3       1 RES1   0.0000
  6150 O111    28.1166  42.9515   7.7635   O.3       1 RES1   0.0000
  6151 O112    34.3052  37.3051   7.7635   O.3       1 RES1   0.0000
  6152 O115    25.5983  45.9514   7.2819   O.3       1 RES1   0.0000
  6153 O116    25.5983  52.1400   1.6355   O.3       1 RES1   0.0000
  6154 O119    25.1167  43.4331  10.2818   O.3       1 RES1   0.0000
  6155 O120    19.4703  43.4331  16.4704   O.3       1 RES1   0.0000
  6156 O123    25.6892  43.5240   7.8544   O.3       1 RES1   0.0000
  6157 O125    34.6066  45.6500  16.7718   O.3       1 RES1   0.0000
  6158 O126    27.8152  52.4414  16.7718   O.3       1 RES1   0.0000
  6159 O127    27.8152  45.6500   9.9804   O.3       1 RES1   0.0000
  6160 O128    34.6066  52.4414   9.9804   O.3       1 RES1   0.0000
  6161 O130    25.6892  52.2809  16.9502   O.3       1 RES1   0.0000
  6162 O131    25.6892  45.8105   9.8020   O.3       1 RES1   0.0000
  6163 O133    34.7850  36.7326  10.1409   O.3       1 RES1   0.0000
  6164 O134    34.7850  43.5240  16.6113   O.3       1 RES1   0.0000
  6165 O135    27.6368  43.5240  10.1409   O.3       1 RES1   0.0000
  6166 O137    27.9757  52.6198   1.0630   O.3       1 RES1   0.0000
  6167 O138    34.4461  52.6198   7.8544   O.3       1 RES1   0.0000
  6168 O139    27.9757  45.4716   7.8544   O.3       1 RES1   0.0000
  6169 O140    34.4461  45.4716   1.0630   O.3       1 RES1   0.0000
  6170 O141    34.6066  43.3635   0.8846   O.3       1 RES1   0.0000
  6171 O142    27.8152  36.8931   0.8846   O.3       1 RES1   0.0000
  6172 O143    27.8152  43.3635   8.0328   O.3       1 RES1   0.0000
  6173 O144    34.6066  36.8931   8.0328   O.3       1 RES1   0.0000
  6174 O147    25.8676  45.6500   7.6939   O.3       1 RES1   0.0000
  6175 O148    25.8676  52.4414   1.2235   O.3       1 RES1   0.0000
  6176 O151    25.5287  43.7024   9.9804   O.3       1 RES1   0.0000
  6177 O152    19.0583  43.7024  16.7718   O.3       1 RES1   0.0000
  6178 O155    25.3522  43.1870   7.5174   O.3       1 RES1   0.0000
  6179 O157    34.2696  45.9870  16.4348   O.3       1 RES1   0.0000
  6180 O158    28.1522  52.1044  16.4348   O.3       1 RES1   0.0000
  6181 O159    28.1522  45.9870  10.3174   O.3       1 RES1   0.0000
  6182 O160    34.2696  52.1044  10.3174   O.3       1 RES1   0.0000
  6183 Zr1     38.1281  44.7855   0.2119   Zr        1 RES1   0.0000
  6184 Zr2     24.2937  53.3059  18.0467   Zr        1 RES1   0.0000
  6185 Zr4     38.1281  53.3059   8.7055   Zr        1 RES1   0.0000
  6186 Zr5     18.0467  55.9629   9.1159   Zr        1 RES1   0.0000
  6187 Zr5     35.8815  38.1281   9.1159   Zr        1 RES1   0.0000
  6188 Zr6     35.8815  42.1285  -0.1985   Zr        1 RES1   0.0000
  6189 Zr6     35.8815  42.1285  17.6363   Zr        1 RES1   0.0000
  6190 Zr8     26.5403  55.9629  -0.1985   Zr        1 RES1   0.0000
  6191 Zr8     26.5403  55.9629  17.6363   Zr        1 RES1   0.0000
  6192 Zr9     26.9507  53.7163   2.4585   Zr        1 RES1   0.0000
  6193 Zr10    35.4711  53.7163   6.4589   Zr        1 RES1   0.0000
  6194 Zr12    35.4711  44.3751  20.2933   Zr        1 RES1   0.0000
  6195 Zr13    33.2111  44.3885  -0.2119   Zr        1 RES1   0.0000
  6196 Zr14    29.2107  53.7029  -0.2119   Zr        1 RES1   0.0000
  6197 Zr14    29.2107  53.7029  17.6229   Zr        1 RES1   0.0000
  6198 Zr16    33.2111  53.7029   9.1293   Zr        1 RES1   0.0000
  6199 Zr18    35.4577  47.0455  18.0333   Zr        1 RES1   0.0000
  6200 Zr20    26.9641  51.0459  18.0333   Zr        1 RES1   0.0000
  6201 Zr21    26.5537  53.2925  -2.4585   Zr        1 RES1   0.0000
  6202 Zr22    35.8681  53.2925  11.3759   Zr        1 RES1   0.0000
  6203 Zr24    35.8681  44.7989  -2.4585   Zr        1 RES1   0.0000
  6204 Zr24    35.8681  44.7989  15.3763   Zr        1 RES1   0.0000
  6205 O2      23.0247  55.1363   0.1427   O.2       1 RES1   0.0000
  6206 O4      21.5623  55.1363   8.7747   O.2       1 RES1   0.0000
  6207 O6      17.9775  40.8595  19.4667   O.co2     1 RES1   0.0000
  6208 O8      26.6095  39.3971  19.4667   O.co2     1 RES1   0.0000
  6209 O10     37.3015  35.8123   5.1899   O.co2     1 RES1   0.0000
  6210 O12     37.3015  44.4443   3.7275   O.co2     1 RES1   0.0000
  6211 O18     35.5269  48.3145  -1.6319   O.2       1 RES1   0.0000
  6212 O20     26.8949  49.7769  -1.6319   O.2       1 RES1   0.0000
  6213 O50     23.3707  53.3742   2.2525   O.2       1 RES1   0.0000
  6214 O52     21.2163  53.3742   6.6649   O.2       1 RES1   0.0000
  6215 O54     20.0873  41.2055  17.7046   O.co2     1 RES1   0.0000
  6216 O56     24.4997  39.0511  17.7046   O.co2     1 RES1   0.0000
  6217 O58     35.5394  37.9221   5.5359   O.co2     1 RES1   0.0000
  6218 O60     35.5394  42.3345   3.3815   O.co2     1 RES1   0.0000
  6219 O66     33.4171  47.9685   0.1302   O.2       1 RES1   0.0000
  6220 O68     29.0047  50.1229   0.1302   O.2       1 RES1   0.0000
  6221 O73     21.5587  45.0133  -1.6158   O.2       1 RES1   0.0000
  6222 O74     23.0283  53.0781  -1.6158   O.2       1 RES1   0.0000
  6223 O85     31.9457  44.1607  19.4506   O.co2     1 RES1   0.0000
  6224 O86     30.4761  36.0959  19.4506   O.co2     1 RES1   0.0000
  6225 O89     37.2854  49.7805   8.4911   O.co2     1 RES1   0.0000
  6226 O90     37.2854  48.3109   0.4263   O.co2     1 RES1   0.0000
  6227 O93     26.3259  55.1202  14.1109   O.2       1 RES1   0.0000
  6228 O94     18.2611  55.1202  12.6413   O.2       1 RES1   0.0000
  6229 O97     37.0340  46.2225  -1.1539   O.3       1 RES1   0.0000
  6230 O98     25.3878  51.8689  -1.1539   O.3       1 RES1   0.0000
  6231 O100    37.0340  51.8689  10.0713   O.3       1 RES1   0.0000
  6232 O101    16.6809  54.8688  10.5529   O.3       1 RES1   0.0000
  6233 O104    27.9061  54.8688  16.1993   O.3       1 RES1   0.0000
  6234 O108    34.0341  45.7409  19.1992   O.3       1 RES1   0.0000
  6235 O109    34.3052  42.9515  18.9887   O.3       1 RES1   0.0000
  6236 O110    28.1166  37.3051  18.9887   O.3       1 RES1   0.0000
  6237 O113    36.8235  52.1400   7.2819   O.3       1 RES1   0.0000
  6238 O114    36.8235  45.9514   1.6355   O.3       1 RES1   0.0000
  6239 O117    25.1167  54.6583  -1.3644   O.3       1 RES1   0.0000
  6240 O117    25.1167  54.6583  16.4704   O.3       1 RES1   0.0000
  6241 O118    19.4703  54.6583  10.2818   O.3       1 RES1   0.0000
  6242 O120    19.4703  43.4331  -1.3644   O.3       1 RES1   0.0000
  6243 O121    36.7326  43.5240   1.0630   O.3       1 RES1   0.0000
  6244 O122    25.6892  54.5674   1.0630   O.3       1 RES1   0.0000
  6245 O124    18.8978  54.5674   7.8544   O.3       1 RES1   0.0000
  6246 O124    36.7326  36.7326   7.8544   O.3       1 RES1   0.0000
  6247 O125    34.6066  45.6500  -1.0630   O.3       1 RES1   0.0000
  6248 O126    27.8152  52.4414  -1.0630   O.3       1 RES1   0.0000
  6249 O129    36.7326  45.8105  -0.8846   O.3       1 RES1   0.0000
  6250 O130    25.6892  52.2809  -0.8846   O.3       1 RES1   0.0000
  6251 O132    36.7326  52.2809   9.8020   O.3       1 RES1   0.0000
  6252 O133    16.9502  54.5674  10.1409   O.3       1 RES1   0.0000
  6253 O136    27.6368  54.5674  16.6113   O.3       1 RES1   0.0000
  6254 O140    34.4461  45.4716  18.8978   O.3       1 RES1   0.0000
  6255 O141    34.6066  43.3635  18.7194   O.3       1 RES1   0.0000
  6256 O142    27.8152  36.8931  18.7194   O.3       1 RES1   0.0000
  6257 O145    36.5542  52.4414   7.6939   O.3       1 RES1   0.0000
  6258 O146    36.5542  45.6500   1.2235   O.3       1 RES1   0.0000
  6259 O149    25.5287  54.3890  -1.0630   O.3       1 RES1   0.0000
  6260 O149    25.5287  54.3890  16.7718   O.3       1 RES1   0.0000
  6261 O150    19.0583  54.3890   9.9804   O.3       1 RES1   0.0000
  6262 O152    19.0583  43.7024  -1.0630   O.3       1 RES1   0.0000
  6263 O153    37.0696  43.1870   1.4000   O.3       1 RES1   0.0000
  6264 O154    25.3522  54.9044   1.4000   O.3       1 RES1   0.0000
  6265 O156    19.2348  54.9044   7.5174   O.3       1 RES1   0.0000
  6266 O156    37.0696  37.0696   7.5174   O.3       1 RES1   0.0000
  6267 O157    34.2696  45.9870  -1.4000   O.3       1 RES1   0.0000
  6268 O158    28.1522  52.1044  -1.4000   O.3       1 RES1   0.0000
  6269 Zr3     24.2937  44.7855  26.5403   Zr        1 RES1   0.0000
  6270 Zr7     26.5403  42.1285  26.9507   Zr        1 RES1   0.0000
  6271 Zr11    26.9507  44.3751  24.2937   Zr        1 RES1   0.0000
  6272 Zr13    33.2111  44.3885  35.4577   Zr        1 RES1   0.0000
  6273 Zr15    29.2107  44.3885  26.9641   Zr        1 RES1   0.0000
  6274 Zr17    35.4577  51.0459  26.5537   Zr        1 RES1   0.0000
  6275 Zr19    26.9641  47.0455  26.5537   Zr        1 RES1   0.0000
  6276 Zr21    26.5537  53.2925  33.2111   Zr        1 RES1   0.0000
  6277 Zr23    26.5537  44.7989  29.2107   Zr        1 RES1   0.0000
  6278 O1      21.5623  42.9551  17.9775   O.co2     1 RES1   0.0000
  6279 O3      23.0247  42.9551  26.6095   O.co2     1 RES1   0.0000
  6280 O5      17.9775  39.3971  25.1203   O.co2     1 RES1   0.0000
  6281 O7      26.6095  40.8595  25.1203   O.co2     1 RES1   0.0000
  6282 O9      25.1203  35.8123  21.5623   O.co2     1 RES1   0.0000
  6283 O11     25.1203  44.4443  23.0247   O.co2     1 RES1   0.0000
  6284 O13     31.9421  46.2189  35.5269   O.co2     1 RES1   0.0000
  6285 O14     30.4797  51.8725  35.5269   O.co2     1 RES1   0.0000
  6286 O15     30.4797  46.2189  26.8949   O.co2     1 RES1   0.0000
  6287 O16     31.9421  51.8725  26.8949   O.co2     1 RES1   0.0000
  6288 O17     35.5269  49.7769  28.3841   O.co2     1 RES1   0.0000
  6289 O18     35.5269  48.3145  34.0377   O.co2     1 RES1   0.0000
  6290 O19     26.8949  48.3145  28.3841   O.co2     1 RES1   0.0000
  6291 O20     26.8949  49.7769  34.0377   O.co2     1 RES1   0.0000
  6292 O21     28.3841  53.3617  31.9421   O.co2     1 RES1   0.0000
  6293 O22     34.0377  53.3617  30.4797   O.co2     1 RES1   0.0000
  6294 O23     28.3841  44.7297  30.4797   O.co2     1 RES1   0.0000
  6295 O24     34.0377  44.7297  31.9421   O.co2     1 RES1   0.0000
  6296 O25     21.2305  46.8092  18.2735   O.co2     1 RES1   0.0000
  6297 O26     23.3565  51.2822  18.2735   O.co2     1 RES1   0.0000
  6298 O27     23.3565  46.8092  26.3135   O.co2     1 RES1   0.0000
  6299 O28     21.2305  51.2822  26.3135   O.co2     1 RES1   0.0000
  6300 O29     18.2735  39.0653  28.9744   O.co2     1 RES1   0.0000
  6301 O30     18.2735  41.1913  33.4474   O.co2     1 RES1   0.0000
  6302 O31     26.3135  41.1913  28.9744   O.co2     1 RES1   0.0000
  6303 O32     26.3135  39.0653  33.4474   O.co2     1 RES1   0.0000
  6304 O33     28.9744  36.1083  21.2305   O.co2     1 RES1   0.0000
  6305 O34     33.4474  36.1083  23.3565   O.co2     1 RES1   0.0000
  6306 O35     28.9744  44.1483  23.3565   O.co2     1 RES1   0.0000
  6307 O36     33.4474  44.1483  21.2305   O.co2     1 RES1   0.0000
  6308 O37     32.2739  42.3648  35.2309   O.co2     1 RES1   0.0000
  6309 O38     30.1479  37.8918  35.2309   O.co2     1 RES1   0.0000
  6310 O39     30.1479  42.3648  27.1909   O.co2     1 RES1   0.0000
  6311 O40     32.2739  37.8918  27.1909   O.co2     1 RES1   0.0000
  6312 O41     35.2309  50.1087  24.5300   O.co2     1 RES1   0.0000
  6313 O42     35.2309  47.9827  20.0570   O.co2     1 RES1   0.0000
  6314 O43     27.1909  47.9827  24.5300   O.co2     1 RES1   0.0000
  6315 O44     27.1909  50.1087  20.0570   O.co2     1 RES1   0.0000
  6316 O45     24.5300  53.0657  32.2739   O.co2     1 RES1   0.0000
  6317 O46     20.0570  53.0657  30.1479   O.co2     1 RES1   0.0000
  6318 O47     24.5300  45.0257  30.1479   O.co2     1 RES1   0.0000
  6319 O48     20.0570  45.0257  32.2739   O.co2     1 RES1   0.0000
  6320 O49     21.2163  44.7172  20.0873   O.co2     1 RES1   0.0000
  6321 O51     23.3707  44.7172  24.4997   O.co2     1 RES1   0.0000
  6322 O53     20.0873  39.0511  26.8824   O.co2     1 RES1   0.0000
  6323 O55     24.4997  41.2055  26.8824   O.co2     1 RES1   0.0000
  6324 O57     26.8824  37.9221  21.2163   O.co2     1 RES1   0.0000
  6325 O59     26.8824  42.3345  23.3707   O.co2     1 RES1   0.0000
  6326 O61     32.2881  44.4568  33.4171   O.co2     1 RES1   0.0000
  6327 O62     30.1337  53.6346  33.4171   O.co2     1 RES1   0.0000
  6328 O63     30.1337  44.4568  29.0047   O.co2     1 RES1   0.0000
  6329 O64     32.2881  53.6346  29.0047   O.co2     1 RES1   0.0000
  6330 O65     33.4171  50.1229  26.6220   O.co2     1 RES1   0.0000
  6331 O66     33.4171  47.9685  35.7998   O.co2     1 RES1   0.0000
  6332 O67     29.0047  47.9685  26.6220   O.co2     1 RES1   0.0000
  6333 O68     29.0047  50.1229  35.7998   O.co2     1 RES1   0.0000
  6334 O69     26.6220  51.2519  32.2881   O.co2     1 RES1   0.0000
  6335 O70     35.7998  51.2519  30.1337   O.co2     1 RES1   0.0000
  6336 O71     26.6220  46.8395  30.1337   O.co2     1 RES1   0.0000
  6337 O72     35.7998  46.8395  32.2881   O.co2     1 RES1   0.0000
  6338 O73     21.5587  45.0133  34.0538   O.co2     1 RES1   0.0000
  6339 O74     23.0283  53.0781  34.0538   O.co2     1 RES1   0.0000
  6340 O75     23.0283  45.0133  28.3680   O.co2     1 RES1   0.0000
  6341 O76     21.5587  53.0781  28.3680   O.co2     1 RES1   0.0000
  6342 O77     34.0538  39.3935  27.1785   O.co2     1 RES1   0.0000
  6343 O78     34.0538  40.8631  35.2433   O.co2     1 RES1   0.0000
  6344 O79     28.3680  40.8631  27.1785   O.co2     1 RES1   0.0000
  6345 O80     28.3680  39.3935  35.2433   O.co2     1 RES1   0.0000
  6346 O81     27.1785  51.8886  21.5587   O.co2     1 RES1   0.0000
  6347 O82     35.2433  51.8886  23.0283   O.co2     1 RES1   0.0000
  6348 O83     27.1785  46.2028  23.0283   O.co2     1 RES1   0.0000
  6349 O84     35.2433  46.2028  21.5587   O.co2     1 RES1   0.0000
  6350 O87     30.4761  44.1607  25.1364   O.co2     1 RES1   0.0000
  6351 O88     31.9457  36.0959  25.1364   O.co2     1 RES1   0.0000
  6352 O91     25.1364  48.3109  26.3259   O.co2     1 RES1   0.0000
  6353 O92     25.1364  49.7805  18.2611   O.co2     1 RES1   0.0000
  6354 O95     26.3259  42.9712  30.4761   O.co2     1 RES1   0.0000
  6355 O96     18.2611  42.9712  31.9457   O.co2     1 RES1   0.0000
  6356 C1      20.6955  47.9596  18.2628   C.2       1 RES1   0.0000
  6357 C2      23.8915  50.1318  18.2628   C.2       1 RES1   0.0000
  6358 C3      23.8915  47.9596  26.3242   C.2       1 RES1   0.0000
  6359 C4      20.6955  50.1318  26.3242   C.2       1 RES1   0.0000
  6360 C5      18.2628  38.5303  30.1248   C.2       1 RES1   0.0000
  6361 C6      18.2628  41.7263  32.2970   C.2       1 RES1   0.0000
  6362 C7      26.3242  41.7263  30.1248   C.2       1 RES1   0.0000
  6363 C8      26.3242  38.5303  32.2970   C.2       1 RES1   0.0000
  6364 C9      30.1248  36.0976  20.6955   C.2       1 RES1   0.0000
  6365 C10     32.2970  36.0976  23.8915   C.2       1 RES1   0.0000
  6366 C11     30.1248  44.1590  23.8915   C.2       1 RES1   0.0000
  6367 C12     32.2970  44.1590  20.6955   C.2       1 RES1   0.0000
  6368 C13     32.8089  41.2144  35.2416   C.2       1 RES1   0.0000
  6369 C14     29.6129  39.0422  35.2416   C.2       1 RES1   0.0000
  6370 C15     29.6129  41.2144  27.1802   C.2       1 RES1   0.0000
  6371 C16     32.8089  39.0422  27.1802   C.2       1 RES1   0.0000
  6372 C17     35.2416  50.6437  23.3796   C.2       1 RES1   0.0000
  6373 C18     35.2416  47.4477  21.2074   C.2       1 RES1   0.0000
  6374 C19     27.1802  47.4477  23.3796   C.2       1 RES1   0.0000
  6375 C20     27.1802  50.6437  21.2074   C.2       1 RES1   0.0000
  6376 C21     23.3796  53.0764  32.8089   C.2       1 RES1   0.0000
  6377 C22     21.2074  53.0764  29.6129   C.2       1 RES1   0.0000
  6378 C23     23.3796  45.0150  29.6129   C.2       1 RES1   0.0000
  6379 C24     21.2074  45.0150  32.8089   C.2       1 RES1   0.0000
  6380 C25     21.6550  49.1438  18.2682   C.2       1 RES1   0.0000
  6381 C26     22.9320  48.9476  18.2682   C.2       1 RES1   0.0000
  6382 C27     22.9320  49.1438  26.3188   C.2       1 RES1   0.0000
  6383 C28     21.6550  48.9476  26.3188   C.2       1 RES1   0.0000
  6384 C29     18.2682  39.4898  31.3090   C.2       1 RES1   0.0000
  6385 C30     18.2682  40.7668  31.1128   C.2       1 RES1   0.0000
  6386 C31     26.3188  40.7668  31.3090   C.2       1 RES1   0.0000
  6387 C32     26.3188  39.4898  31.1128   C.2       1 RES1   0.0000
  6388 C33     31.3090  36.1030  21.6550   C.2       1 RES1   0.0000
  6389 C34     31.1128  36.1030  22.9320   C.2       1 RES1   0.0000
  6390 C35     31.3090  44.1536  22.9320   C.2       1 RES1   0.0000
  6391 C36     31.1128  44.1536  21.6550   C.2       1 RES1   0.0000
  6392 C37     31.8494  40.0302  35.2362   C.2       1 RES1   0.0000
  6393 C38     30.5724  40.2264  35.2362   C.2       1 RES1   0.0000
  6394 C39     30.5724  40.0302  27.1856   C.2       1 RES1   0.0000
  6395 C40     31.8494  40.2264  27.1856   C.2       1 RES1   0.0000
  6396 C41     35.2362  49.6842  22.1954   C.2       1 RES1   0.0000
  6397 C42     35.2362  48.4072  22.3916   C.2       1 RES1   0.0000
  6398 C43     27.1856  48.4072  22.1954   C.2       1 RES1   0.0000
  6399 C44     27.1856  49.6842  22.3916   C.2       1 RES1   0.0000
  6400 C45     22.1954  53.0710  31.8494   C.2       1 RES1   0.0000
  6401 C46     22.3916  53.0710  30.5724   C.2       1 RES1   0.0000
  6402 C47     22.1954  45.0204  30.5724   C.2       1 RES1   0.0000
  6403 C48     22.3916  45.0204  31.8494   C.2       1 RES1   0.0000
  6404 H1      21.3215  50.0123  18.2700   H         1 RES1   0.0000
  6405 H2      23.2655  48.0791  18.2700   H         1 RES1   0.0000
  6406 H3      23.2655  50.0123  26.3170   H         1 RES1   0.0000
  6407 H4      21.3215  48.0791  26.3170   H         1 RES1   0.0000
  6408 H5      18.2700  39.1563  32.1775   H         1 RES1   0.0000
  6409 H6      18.2700  41.1003  30.2443   H         1 RES1   0.0000
  6410 H7      26.3170  41.1003  32.1775   H         1 RES1   0.0000
  6411 H8      26.3170  39.1563  30.2443   H         1 RES1   0.0000
  6412 H9      32.1775  36.1048  21.3215   H         1 RES1   0.0000
  6413 H10     30.2443  36.1048  23.2655   H         1 RES1   0.0000
  6414 H11     32.1775  44.1518  23.2655   H         1 RES1   0.0000
  6415 H12     30.2443  44.1518  21.3215   H         1 RES1   0.0000
  6416 H13     32.1829  39.1617  35.2344   H         1 RES1   0.0000
  6417 H14     30.2389  41.0949  35.2344   H         1 RES1   0.0000
  6418 H15     30.2389  39.1617  27.1874   H         1 RES1   0.0000
  6419 H16     32.1829  41.0949  27.1874   H         1 RES1   0.0000
  6420 H17     35.2344  50.0177  21.3269   H         1 RES1   0.0000
  6421 H18     35.2344  48.0737  23.2601   H         1 RES1   0.0000
  6422 H19     27.1874  48.0737  21.3269   H         1 RES1   0.0000
  6423 H20     27.1874  50.0177  23.2601   H         1 RES1   0.0000
  6424 H21     21.3269  53.0692  32.1829   H         1 RES1   0.0000
  6425 H22     23.2601  53.0692  30.2389   H         1 RES1   0.0000
  6426 H23     21.3269  45.0222  30.2389   H         1 RES1   0.0000
  6427 H24     23.2601  45.0222  32.1829   H         1 RES1   0.0000
  6428 C49     21.2341  41.7299  17.8348   C.2       1 RES1   0.0000
  6429 C50     23.3529  38.5267  17.8348   C.2       1 RES1   0.0000
  6430 C51     23.3529  41.7299  26.7522   C.2       1 RES1   0.0000
  6431 C52     21.2341  38.5267  26.7522   C.2       1 RES1   0.0000
  6432 C53     17.8348  39.0689  23.8951   C.2       1 RES1   0.0000
  6433 C54     17.8348  41.1877  20.6919   C.2       1 RES1   0.0000
  6434 C55     26.7522  41.1877  23.8951   C.2       1 RES1   0.0000
  6435 C56     26.7522  39.0689  20.6919   C.2       1 RES1   0.0000
  6436 C57     23.8951  35.6696  21.2341   C.2       1 RES1   0.0000
  6437 C58     20.6919  35.6696  23.3529   C.2       1 RES1   0.0000
  6438 C59     23.8951  44.5870  23.3529   C.2       1 RES1   0.0000
  6439 C60     20.6919  44.5870  21.2341   C.2       1 RES1   0.0000
  6440 C61     32.2703  47.4441  35.6696   C.2       1 RES1   0.0000
  6441 C62     30.1515  50.6473  35.6696   C.2       1 RES1   0.0000
  6442 C63     30.1515  47.4441  26.7522   C.2       1 RES1   0.0000
  6443 C64     32.2703  50.6473  26.7522   C.2       1 RES1   0.0000
  6444 C65     35.6696  50.1051  29.6093   C.2       1 RES1   0.0000
  6445 C66     35.6696  47.9863  32.8125   C.2       1 RES1   0.0000
  6446 C67     26.7522  47.9863  29.6093   C.2       1 RES1   0.0000
  6447 C68     26.7522  50.1051  32.8125   C.2       1 RES1   0.0000
  6448 C69     29.6093  53.5044  32.2703   C.2       1 RES1   0.0000
  6449 C70     32.8125  53.5044  30.1515   C.2       1 RES1   0.0000
  6450 C71     29.6093  44.5870  30.1515   C.2       1 RES1   0.0000
  6451 C72     32.8125  44.5870  32.2703   C.2       1 RES1   0.0000
  6452 C73     22.4130  40.7793  17.8366   C.2       1 RES1   0.0000
  6453 C74     22.1740  39.4773  17.8366   C.2       1 RES1   0.0000
  6454 C75     22.1740  40.7793  26.7504   C.2       1 RES1   0.0000
  6455 C76     22.4130  39.4773  26.7504   C.2       1 RES1   0.0000
  6456 C77     17.8366  40.2478  22.9445   C.2       1 RES1   0.0000
  6457 C78     17.8366  40.0088  21.6425   C.2       1 RES1   0.0000
  6458 C79     26.7504  40.0088  22.9445   C.2       1 RES1   0.0000
  6459 C80     26.7504  40.2478  21.6425   C.2       1 RES1   0.0000
  6460 C81     22.9445  35.6714  22.4130   C.2       1 RES1   0.0000
  6461 C82     21.6425  35.6714  22.1740   C.2       1 RES1   0.0000
  6462 C83     22.9445  44.5852  22.1740   C.2       1 RES1   0.0000
  6463 C84     21.6425  44.5852  22.4130   C.2       1 RES1   0.0000
  6464 C85     31.0914  48.3947  35.6678   C.2       1 RES1   0.0000
  6465 C86     31.3304  49.6967  35.6678   C.2       1 RES1   0.0000
  6466 C87     31.3304  48.3947  26.7540   C.2       1 RES1   0.0000
  6467 C88     31.0914  49.6967  26.7540   C.2       1 RES1   0.0000
  6468 C89     35.6678  48.9262  30.5599   C.2       1 RES1   0.0000
  6469 C90     35.6678  49.1652  31.8619   C.2       1 RES1   0.0000
  6470 C91     26.7540  49.1652  30.5599   C.2       1 RES1   0.0000
  6471 C92     26.7540  48.9262  31.8619   C.2       1 RES1   0.0000
  6472 C93     30.5599  53.5026  31.0914   C.2       1 RES1   0.0000
  6473 C94     31.8619  53.5026  31.3304   C.2       1 RES1   0.0000
  6474 C95     30.5599  44.5888  31.3304   C.2       1 RES1   0.0000
  6475 C96     31.8619  44.5888  31.0914   C.2       1 RES1   0.0000
  6476 H25     23.2851  41.1021  17.8366   H         1 RES1   0.0000
  6477 H26     21.3019  39.1545  17.8366   H         1 RES1   0.0000
  6478 H27     21.3019  41.1021  26.7504   H         1 RES1   0.0000
  6479 H28     23.2851  39.1545  26.7504   H         1 RES1   0.0000
  6480 H29     17.8366  41.1199  23.2673   H         1 RES1   0.0000
  6481 H30     17.8366  39.1367  21.3197   H         1 RES1   0.0000
  6482 H31     26.7504  39.1367  23.2673   H         1 RES1   0.0000
  6483 H32     26.7504  41.1199  21.3197   H         1 RES1   0.0000
  6484 H33     23.2673  35.6714  23.2851   H         1 RES1   0.0000
  6485 H34     21.3197  35.6714  21.3019   H         1 RES1   0.0000
  6486 H35     23.2673  44.5852  21.3019   H         1 RES1   0.0000
  6487 H36     21.3197  44.5852  23.2851   H         1 RES1   0.0000
  6488 H37     30.2193  48.0719  35.6678   H         1 RES1   0.0000
  6489 H38     32.2025  50.0195  35.6678   H         1 RES1   0.0000
  6490 H39     32.2025  48.0719  26.7540   H         1 RES1   0.0000
  6491 H40     30.2193  50.0195  26.7540   H         1 RES1   0.0000
  6492 H41     35.6678  48.0541  30.2371   H         1 RES1   0.0000
  6493 H42     35.6678  50.0373  32.1847   H         1 RES1   0.0000
  6494 H43     26.7540  50.0373  30.2371   H         1 RES1   0.0000
  6495 H44     26.7540  48.0541  32.1847   H         1 RES1   0.0000
  6496 H45     30.2371  53.5026  30.2193   H         1 RES1   0.0000
  6497 H46     32.1847  53.5026  32.2025   H         1 RES1   0.0000
  6498 H47     30.2371  44.5888  32.2025   H         1 RES1   0.0000
  6499 H48     32.1847  44.5888  30.2193   H         1 RES1   0.0000
  6500 O98     25.3878  51.8689  34.5157   O.3       1 RES1   0.0000
  6501 O99     25.3878  46.2225  27.9061   O.3       1 RES1   0.0000
  6502 O101    34.5157  37.0340  28.3877   O.3       1 RES1   0.0000
  6503 O102    34.5157  43.2226  34.0341   O.3       1 RES1   0.0000
  6504 O103    27.9061  43.2226  28.3877   O.3       1 RES1   0.0000
  6505 O105    28.3877  52.3505  19.1992   O.3       1 RES1   0.0000
  6506 O106    34.0341  52.3505  25.3878   O.3       1 RES1   0.0000
  6507 O107    28.3877  45.7409  25.3878   O.3       1 RES1   0.0000
  6508 O111    28.1166  42.9515  25.5983   O.3       1 RES1   0.0000
  6509 O112    34.3052  37.3051  25.5983   O.3       1 RES1   0.0000
  6510 O115    25.5983  45.9514  25.1167   O.3       1 RES1   0.0000
  6511 O116    25.5983  52.1400  19.4703   O.3       1 RES1   0.0000
  6512 O119    25.1167  43.4331  28.1166   O.3       1 RES1   0.0000
  6513 O120    19.4703  43.4331  34.3052   O.3       1 RES1   0.0000
  6514 O123    25.6892  43.5240  25.6892   O.3       1 RES1   0.0000
  6515 O125    34.6066  45.6500  34.6066   O.3       1 RES1   0.0000
  6516 O126    27.8152  52.4414  34.6066   O.3       1 RES1   0.0000
  6517 O127    27.8152  45.6500  27.8152   O.3       1 RES1   0.0000
  6518 O128    34.6066  52.4414  27.8152   O.3       1 RES1   0.0000
  6519 O130    25.6892  52.2809  34.7850   O.3       1 RES1   0.0000
  6520 O131    25.6892  45.8105  27.6368   O.3       1 RES1   0.0000
  6521 O133    34.7850  36.7326  27.9757   O.3       1 RES1   0.0000
  6522 O134    34.7850  43.5240  34.4461   O.3       1 RES1   0.0000
  6523 O135    27.6368  43.5240  27.9757   O.3       1 RES1   0.0000
  6524 O137    27.9757  52.6198  18.8978   O.3       1 RES1   0.0000
  6525 O138    34.4461  52.6198  25.6892   O.3       1 RES1   0.0000
  6526 O139    27.9757  45.4716  25.6892   O.3       1 RES1   0.0000
  6527 O143    27.8152  43.3635  25.8676   O.3       1 RES1   0.0000
  6528 O144    34.6066  36.8931  25.8676   O.3       1 RES1   0.0000
  6529 O147    25.8676  45.6500  25.5287   O.3       1 RES1   0.0000
  6530 O148    25.8676  52.4414  19.0583   O.3       1 RES1   0.0000
  6531 O151    25.5287  43.7024  27.8152   O.3       1 RES1   0.0000
  6532 O152    19.0583  43.7024  34.6066   O.3       1 RES1   0.0000
  6533 O155    25.3522  43.1870  25.3522   O.3       1 RES1   0.0000
  6534 O157    34.2696  45.9870  34.2696   O.3       1 RES1   0.0000
  6535 O158    28.1522  52.1044  34.2696   O.3       1 RES1   0.0000
  6536 O159    28.1522  45.9870  28.1522   O.3       1 RES1   0.0000
  6537 O160    34.2696  52.1044  28.1522   O.3       1 RES1   0.0000
  6538 Zr1     38.1281  44.7855  18.0467   Zr        1 RES1   0.0000
  6539 Zr2     24.2937  53.3059  35.8815   Zr        1 RES1   0.0000
  6540 Zr4     38.1281  53.3059  26.5403   Zr        1 RES1   0.0000
  6541 Zr5     18.0467  55.9629  26.9507   Zr        1 RES1   0.0000
  6542 Zr5     35.8815  38.1281  26.9507   Zr        1 RES1   0.0000
  6543 Zr6     35.8815  42.1285  35.4711   Zr        1 RES1   0.0000
  6544 Zr8     26.5403  55.9629  35.4711   Zr        1 RES1   0.0000
  6545 Zr9     26.9507  53.7163  20.2933   Zr        1 RES1   0.0000
  6546 Zr10    35.4711  53.7163  24.2937   Zr        1 RES1   0.0000
  6547 Zr12    35.4711  44.3751  38.1281   Zr        1 RES1   0.0000
  6548 Zr14    29.2107  53.7029  35.4577   Zr        1 RES1   0.0000
  6549 Zr16    33.2111  53.7029  26.9641   Zr        1 RES1   0.0000
  6550 Zr18    35.4577  47.0455  35.8681   Zr        1 RES1   0.0000
  6551 Zr20    26.9641  51.0459  35.8681   Zr        1 RES1   0.0000
  6552 Zr22    35.8681  53.2925  29.2107   Zr        1 RES1   0.0000
  6553 Zr24    35.8681  44.7989  33.2111   Zr        1 RES1   0.0000
  6554 O2      23.0247  55.1363  17.9775   O.2       1 RES1   0.0000
  6555 O4      21.5623  55.1363  26.6095   O.2       1 RES1   0.0000
  6556 O6      17.9775  40.8595  37.3015   O.co2     1 RES1   0.0000
  6557 O8      26.6095  39.3971  37.3015   O.co2     1 RES1   0.0000
  6558 O10     37.3015  35.8123  23.0247   O.co2     1 RES1   0.0000
  6559 O12     37.3015  44.4443  21.5623   O.co2     1 RES1   0.0000
  6560 O50     23.3707  53.3742  20.0873   O.2       1 RES1   0.0000
  6561 O52     21.2163  53.3742  24.4997   O.2       1 RES1   0.0000
  6562 O54     20.0873  41.2055  35.5394   O.co2     1 RES1   0.0000
  6563 O56     24.4997  39.0511  35.5394   O.co2     1 RES1   0.0000
  6564 O58     35.5394  37.9221  23.3707   O.co2     1 RES1   0.0000
  6565 O60     35.5394  42.3345  21.2163   O.co2     1 RES1   0.0000
  6566 O85     31.9457  44.1607  37.2854   O.co2     1 RES1   0.0000
  6567 O86     30.4761  36.0959  37.2854   O.co2     1 RES1   0.0000
  6568 O89     37.2854  49.7805  26.3259   O.co2     1 RES1   0.0000
  6569 O90     37.2854  48.3109  18.2611   O.co2     1 RES1   0.0000
  6570 O93     26.3259  55.1202  31.9457   O.2       1 RES1   0.0000
  6571 O94     18.2611  55.1202  30.4761   O.2       1 RES1   0.0000
  6572 O97     37.0340  46.2225  16.6809   O.3       1 RES1   0.0000
  6573 O100    37.0340  51.8689  27.9061   O.3       1 RES1   0.0000
  6574 O101    16.6809  54.8688  28.3877   O.3       1 RES1   0.0000
  6575 O104    27.9061  54.8688  34.0341   O.3       1 RES1   0.0000
  6576 O108    34.0341  45.7409  37.0340   O.3       1 RES1   0.0000
  6577 O109    34.3052  42.9515  36.8235   O.3       1 RES1   0.0000
  6578 O110    28.1166  37.3051  36.8235   O.3       1 RES1   0.0000
  6579 O113    36.8235  52.1400  25.1167   O.3       1 RES1   0.0000
  6580 O114    36.8235  45.9514  19.4703   O.3       1 RES1   0.0000
  6581 O117    25.1167  54.6583  34.3052   O.3       1 RES1   0.0000
  6582 O118    19.4703  54.6583  28.1166   O.3       1 RES1   0.0000
  6583 O121    36.7326  43.5240  18.8978   O.3       1 RES1   0.0000
  6584 O122    25.6892  54.5674  18.8978   O.3       1 RES1   0.0000
  6585 O124    18.8978  54.5674  25.6892   O.3       1 RES1   0.0000
  6586 O124    36.7326  36.7326  25.6892   O.3       1 RES1   0.0000
  6587 O129    36.7326  45.8105  16.9502   O.3       1 RES1   0.0000
  6588 O132    36.7326  52.2809  27.6368   O.3       1 RES1   0.0000
  6589 O133    16.9502  54.5674  27.9757   O.3       1 RES1   0.0000
  6590 O136    27.6368  54.5674  34.4461   O.3       1 RES1   0.0000
  6591 O140    34.4461  45.4716  36.7326   O.3       1 RES1   0.0000
  6592 O141    34.6066  43.3635  36.5542   O.3       1 RES1   0.0000
  6593 O142    27.8152  36.8931  36.5542   O.3       1 RES1   0.0000
  6594 O145    36.5542  52.4414  25.5287   O.3       1 RES1   0.0000
  6595 O146    36.5542  45.6500  19.0583   O.3       1 RES1   0.0000
  6596 O149    25.5287  54.3890  34.6066   O.3       1 RES1   0.0000
  6597 O150    19.0583  54.3890  27.8152   O.3       1 RES1   0.0000
  6598 O153    37.0696  43.1870  19.2348   O.3       1 RES1   0.0000
  6599 O154    25.3522  54.9044  19.2348   O.3       1 RES1   0.0000
  6600 O156    19.2348  54.9044  25.3522   O.3       1 RES1   0.0000
  6601 O156    37.0696  37.0696  25.3522   O.3       1 RES1   0.0000
  6602 Zr3     24.2937  44.7855  44.3751   Zr        1 RES1   0.0000
  6603 Zr7     26.5403  42.1285  44.7855   Zr        1 RES1   0.0000
  6604 Zr11    26.9507  44.3751  42.1285   Zr        1 RES1   0.0000
  6605 Zr13    33.2111  44.3885  53.2925   Zr        1 RES1   0.0000
  6606 Zr15    29.2107  44.3885  44.7989   Zr        1 RES1   0.0000
  6607 Zr17    35.4577  51.0459  44.3885   Zr        1 RES1   0.0000
  6608 Zr19    26.9641  47.0455  44.3885   Zr        1 RES1   0.0000
  6609 Zr21    26.5537  53.2925  51.0459   Zr        1 RES1   0.0000
  6610 Zr23    26.5537  44.7989  47.0455   Zr        1 RES1   0.0000
  6611 O1      21.5623  42.9551  35.8123   O.co2     1 RES1   0.0000
  6612 O3      23.0247  42.9551  44.4443   O.co2     1 RES1   0.0000
  6613 O5      17.9775  39.3971  42.9551   O.co2     1 RES1   0.0000
  6614 O7      26.6095  40.8595  42.9551   O.co2     1 RES1   0.0000
  6615 O9      25.1203  35.8123  39.3971   O.co2     1 RES1   0.0000
  6616 O11     25.1203  44.4443  40.8595   O.co2     1 RES1   0.0000
  6617 O13     31.9421  46.2189  53.3617   O.co2     1 RES1   0.0000
  6618 O14     30.4797  51.8725  53.3617   O.co2     1 RES1   0.0000
  6619 O15     30.4797  46.2189  44.7297   O.co2     1 RES1   0.0000
  6620 O16     31.9421  51.8725  44.7297   O.co2     1 RES1   0.0000
  6621 O17     35.5269  49.7769  46.2189   O.co2     1 RES1   0.0000
  6622 O18     35.5269  48.3145  51.8725   O.co2     1 RES1   0.0000
  6623 O19     26.8949  48.3145  46.2189   O.co2     1 RES1   0.0000
  6624 O20     26.8949  49.7769  51.8725   O.co2     1 RES1   0.0000
  6625 O21     28.3841  53.3617  49.7769   O.co2     1 RES1   0.0000
  6626 O22     34.0377  53.3617  48.3145   O.co2     1 RES1   0.0000
  6627 O23     28.3841  44.7297  48.3145   O.co2     1 RES1   0.0000
  6628 O24     34.0377  44.7297  49.7769   O.co2     1 RES1   0.0000
  6629 O25     21.2305  46.8092  36.1083   O.co2     1 RES1   0.0000
  6630 O26     23.3565  51.2822  36.1083   O.co2     1 RES1   0.0000
  6631 O27     23.3565  46.8092  44.1483   O.co2     1 RES1   0.0000
  6632 O28     21.2305  51.2822  44.1483   O.co2     1 RES1   0.0000
  6633 O29     18.2735  39.0653  46.8092   O.co2     1 RES1   0.0000
  6634 O30     18.2735  41.1913  51.2822   O.co2     1 RES1   0.0000
  6635 O31     26.3135  41.1913  46.8092   O.co2     1 RES1   0.0000
  6636 O32     26.3135  39.0653  51.2822   O.co2     1 RES1   0.0000
  6637 O33     28.9744  36.1083  39.0653   O.co2     1 RES1   0.0000
  6638 O34     33.4474  36.1083  41.1913   O.co2     1 RES1   0.0000
  6639 O35     28.9744  44.1483  41.1913   O.co2     1 RES1   0.0000
  6640 O36     33.4474  44.1483  39.0653   O.co2     1 RES1   0.0000
  6641 O37     32.2739  42.3648  53.0657   O.co2     1 RES1   0.0000
  6642 O38     30.1479  37.8918  53.0657   O.co2     1 RES1   0.0000
  6643 O39     30.1479  42.3648  45.0257   O.co2     1 RES1   0.0000
  6644 O40     32.2739  37.8918  45.0257   O.co2     1 RES1   0.0000
  6645 O41     35.2309  50.1087  42.3648   O.co2     1 RES1   0.0000
  6646 O42     35.2309  47.9827  37.8918   O.co2     1 RES1   0.0000
  6647 O43     27.1909  47.9827  42.3648   O.co2     1 RES1   0.0000
  6648 O44     27.1909  50.1087  37.8918   O.co2     1 RES1   0.0000
  6649 O45     24.5300  53.0657  50.1087   O.co2     1 RES1   0.0000
  6650 O46     20.0570  53.0657  47.9827   O.co2     1 RES1   0.0000
  6651 O47     24.5300  45.0257  47.9827   O.co2     1 RES1   0.0000
  6652 O48     20.0570  45.0257  50.1087   O.co2     1 RES1   0.0000
  6653 O49     21.2163  44.7172  37.9221   O.co2     1 RES1   0.0000
  6654 O51     23.3707  44.7172  42.3345   O.co2     1 RES1   0.0000
  6655 O53     20.0873  39.0511  44.7172   O.co2     1 RES1   0.0000
  6656 O55     24.4997  41.2055  44.7172   O.co2     1 RES1   0.0000
  6657 O57     26.8824  37.9221  39.0511   O.co2     1 RES1   0.0000
  6658 O59     26.8824  42.3345  41.2055   O.co2     1 RES1   0.0000
  6659 O61     32.2881  44.4568  51.2519   O.co2     1 RES1   0.0000
  6660 O62     30.1337  53.6346  51.2519   O.co2     1 RES1   0.0000
  6661 O63     30.1337  44.4568  46.8395   O.co2     1 RES1   0.0000
  6662 O64     32.2881  53.6346  46.8395   O.co2     1 RES1   0.0000
  6663 O65     33.4171  50.1229  44.4568   O.co2     1 RES1   0.0000
  6664 O66     33.4171  47.9685  53.6346   O.co2     1 RES1   0.0000
  6665 O67     29.0047  47.9685  44.4568   O.co2     1 RES1   0.0000
  6666 O68     29.0047  50.1229  53.6346   O.co2     1 RES1   0.0000
  6667 O69     26.6220  51.2519  50.1229   O.co2     1 RES1   0.0000
  6668 O70     35.7998  51.2519  47.9685   O.co2     1 RES1   0.0000
  6669 O71     26.6220  46.8395  47.9685   O.co2     1 RES1   0.0000
  6670 O72     35.7998  46.8395  50.1229   O.co2     1 RES1   0.0000
  6671 O73     21.5587  45.0133  51.8886   O.co2     1 RES1   0.0000
  6672 O74     23.0283  53.0781  51.8886   O.co2     1 RES1   0.0000
  6673 O75     23.0283  45.0133  46.2028   O.co2     1 RES1   0.0000
  6674 O76     21.5587  53.0781  46.2028   O.co2     1 RES1   0.0000
  6675 O77     34.0538  39.3935  45.0133   O.co2     1 RES1   0.0000
  6676 O78     34.0538  40.8631  53.0781   O.co2     1 RES1   0.0000
  6677 O79     28.3680  40.8631  45.0133   O.co2     1 RES1   0.0000
  6678 O80     28.3680  39.3935  53.0781   O.co2     1 RES1   0.0000
  6679 O81     27.1785  51.8886  39.3935   O.co2     1 RES1   0.0000
  6680 O82     35.2433  51.8886  40.8631   O.co2     1 RES1   0.0000
  6681 O83     27.1785  46.2028  40.8631   O.co2     1 RES1   0.0000
  6682 O84     35.2433  46.2028  39.3935   O.co2     1 RES1   0.0000
  6683 O87     30.4761  44.1607  42.9712   O.co2     1 RES1   0.0000
  6684 O88     31.9457  36.0959  42.9712   O.co2     1 RES1   0.0000
  6685 O91     25.1364  48.3109  44.1607   O.co2     1 RES1   0.0000
  6686 O92     25.1364  49.7805  36.0959   O.co2     1 RES1   0.0000
  6687 O95     26.3259  42.9712  48.3109   O.co2     1 RES1   0.0000
  6688 O96     18.2611  42.9712  49.7805   O.co2     1 RES1   0.0000
  6689 C1      20.6955  47.9596  36.0976   C.2       1 RES1   0.0000
  6690 C2      23.8915  50.1318  36.0976   C.2       1 RES1   0.0000
  6691 C3      23.8915  47.9596  44.1590   C.2       1 RES1   0.0000
  6692 C4      20.6955  50.1318  44.1590   C.2       1 RES1   0.0000
  6693 C5      18.2628  38.5303  47.9596   C.2       1 RES1   0.0000
  6694 C6      18.2628  41.7263  50.1318   C.2       1 RES1   0.0000
  6695 C7      26.3242  41.7263  47.9596   C.2       1 RES1   0.0000
  6696 C8      26.3242  38.5303  50.1318   C.2       1 RES1   0.0000
  6697 C9      30.1248  36.0976  38.5303   C.2       1 RES1   0.0000
  6698 C10     32.2970  36.0976  41.7263   C.2       1 RES1   0.0000
  6699 C11     30.1248  44.1590  41.7263   C.2       1 RES1   0.0000
  6700 C12     32.2970  44.1590  38.5303   C.2       1 RES1   0.0000
  6701 C13     32.8089  41.2144  53.0764   C.2       1 RES1   0.0000
  6702 C14     29.6129  39.0422  53.0764   C.2       1 RES1   0.0000
  6703 C15     29.6129  41.2144  45.0150   C.2       1 RES1   0.0000
  6704 C16     32.8089  39.0422  45.0150   C.2       1 RES1   0.0000
  6705 C17     35.2416  50.6437  41.2144   C.2       1 RES1   0.0000
  6706 C18     35.2416  47.4477  39.0422   C.2       1 RES1   0.0000
  6707 C19     27.1802  47.4477  41.2144   C.2       1 RES1   0.0000
  6708 C20     27.1802  50.6437  39.0422   C.2       1 RES1   0.0000
  6709 C21     23.3796  53.0764  50.6437   C.2       1 RES1   0.0000
  6710 C22     21.2074  53.0764  47.4477   C.2       1 RES1   0.0000
  6711 C23     23.3796  45.0150  47.4477   C.2       1 RES1   0.0000
  6712 C24     21.2074  45.0150  50.6437   C.2       1 RES1   0.0000
  6713 C25     21.6550  49.1438  36.1030   C.2       1 RES1   0.0000
  6714 C26     22.9320  48.9476  36.1030   C.2       1 RES1   0.0000
  6715 C27     22.9320  49.1438  44.1536   C.2       1 RES1   0.0000
  6716 C28     21.6550  48.9476  44.1536   C.2       1 RES1   0.0000
  6717 C29     18.2682  39.4898  49.1438   C.2       1 RES1   0.0000
  6718 C30     18.2682  40.7668  48.9476   C.2       1 RES1   0.0000
  6719 C31     26.3188  40.7668  49.1438   C.2       1 RES1   0.0000
  6720 C32     26.3188  39.4898  48.9476   C.2       1 RES1   0.0000
  6721 C33     31.3090  36.1030  39.4898   C.2       1 RES1   0.0000
  6722 C34     31.1128  36.1030  40.7668   C.2       1 RES1   0.0000
  6723 C35     31.3090  44.1536  40.7668   C.2       1 RES1   0.0000
  6724 C36     31.1128  44.1536  39.4898   C.2       1 RES1   0.0000
  6725 C37     31.8494  40.0302  53.0710   C.2       1 RES1   0.0000
  6726 C38     30.5724  40.2264  53.0710   C.2       1 RES1   0.0000
  6727 C39     30.5724  40.0302  45.0204   C.2       1 RES1   0.0000
  6728 C40     31.8494  40.2264  45.0204   C.2       1 RES1   0.0000
  6729 C41     35.2362  49.6842  40.0302   C.2       1 RES1   0.0000
  6730 C42     35.2362  48.4072  40.2264   C.2       1 RES1   0.0000
  6731 C43     27.1856  48.4072  40.0302   C.2       1 RES1   0.0000
  6732 C44     27.1856  49.6842  40.2264   C.2       1 RES1   0.0000
  6733 C45     22.1954  53.0710  49.6842   C.2       1 RES1   0.0000
  6734 C46     22.3916  53.0710  48.4072   C.2       1 RES1   0.0000
  6735 C47     22.1954  45.0204  48.4072   C.2       1 RES1   0.0000
  6736 C48     22.3916  45.0204  49.6842   C.2       1 RES1   0.0000
  6737 H1      21.3215  50.0123  36.1048   H         1 RES1   0.0000
  6738 H2      23.2655  48.0791  36.1048   H         1 RES1   0.0000
  6739 H3      23.2655  50.0123  44.1518   H         1 RES1   0.0000
  6740 H4      21.3215  48.0791  44.1518   H         1 RES1   0.0000
  6741 H5      18.2700  39.1563  50.0123   H         1 RES1   0.0000
  6742 H6      18.2700  41.1003  48.0791   H         1 RES1   0.0000
  6743 H7      26.3170  41.1003  50.0123   H         1 RES1   0.0000
  6744 H8      26.3170  39.1563  48.0791   H         1 RES1   0.0000
  6745 H9      32.1775  36.1048  39.1563   H         1 RES1   0.0000
  6746 H10     30.2443  36.1048  41.1003   H         1 RES1   0.0000
  6747 H11     32.1775  44.1518  41.1003   H         1 RES1   0.0000
  6748 H12     30.2443  44.1518  39.1563   H         1 RES1   0.0000
  6749 H13     32.1829  39.1617  53.0692   H         1 RES1   0.0000
  6750 H14     30.2389  41.0949  53.0692   H         1 RES1   0.0000
  6751 H15     30.2389  39.1617  45.0222   H         1 RES1   0.0000
  6752 H16     32.1829  41.0949  45.0222   H         1 RES1   0.0000
  6753 H17     35.2344  50.0177  39.1617   H         1 RES1   0.0000
  6754 H18     35.2344  48.0737  41.0949   H         1 RES1   0.0000
  6755 H19     27.1874  48.0737  39.1617   H         1 RES1   0.0000
  6756 H20     27.1874  50.0177  41.0949   H         1 RES1   0.0000
  6757 H21     21.3269  53.0692  50.0177   H         1 RES1   0.0000
  6758 H22     23.2601  53.0692  48.0737   H         1 RES1   0.0000
  6759 H23     21.3269  45.0222  48.0737   H         1 RES1   0.0000
  6760 H24     23.2601  45.0222  50.0177   H         1 RES1   0.0000
  6761 C49     21.2341  41.7299  35.6696   C.2       1 RES1   0.0000
  6762 C50     23.3529  38.5267  35.6696   C.2       1 RES1   0.0000
  6763 C51     23.3529  41.7299  44.5870   C.2       1 RES1   0.0000
  6764 C52     21.2341  38.5267  44.5870   C.2       1 RES1   0.0000
  6765 C53     17.8348  39.0689  41.7299   C.2       1 RES1   0.0000
  6766 C54     17.8348  41.1877  38.5267   C.2       1 RES1   0.0000
  6767 C55     26.7522  41.1877  41.7299   C.2       1 RES1   0.0000
  6768 C56     26.7522  39.0689  38.5267   C.2       1 RES1   0.0000
  6769 C57     23.8951  35.6696  39.0689   C.2       1 RES1   0.0000
  6770 C58     20.6919  35.6696  41.1877   C.2       1 RES1   0.0000
  6771 C59     23.8951  44.5870  41.1877   C.2       1 RES1   0.0000
  6772 C60     20.6919  44.5870  39.0689   C.2       1 RES1   0.0000
  6773 C61     32.2703  47.4441  53.5044   C.2       1 RES1   0.0000
  6774 C62     30.1515  50.6473  53.5044   C.2       1 RES1   0.0000
  6775 C63     30.1515  47.4441  44.5870   C.2       1 RES1   0.0000
  6776 C64     32.2703  50.6473  44.5870   C.2       1 RES1   0.0000
  6777 C65     35.6696  50.1051  47.4441   C.2       1 RES1   0.0000
  6778 C66     35.6696  47.9863  50.6473   C.2       1 RES1   0.0000
  6779 C67     26.7522  47.9863  47.4441   C.2       1 RES1   0.0000
  6780 C68     26.7522  50.1051  50.6473   C.2       1 RES1   0.0000
  6781 C69     29.6093  53.5044  50.1051   C.2       1 RES1   0.0000
  6782 C70     32.8125  53.5044  47.9863   C.2       1 RES1   0.0000
  6783 C71     29.6093  44.5870  47.9863   C.2       1 RES1   0.0000
  6784 C72     32.8125  44.5870  50.1051   C.2       1 RES1   0.0000
  6785 C73     22.4130  40.7793  35.6714   C.2       1 RES1   0.0000
  6786 C74     22.1740  39.4773  35.6714   C.2       1 RES1   0.0000
  6787 C75     22.1740  40.7793  44.5852   C.2       1 RES1   0.0000
  6788 C76     22.4130  39.4773  44.5852   C.2       1 RES1   0.0000
  6789 C77     17.8366  40.2478  40.7793   C.2       1 RES1   0.0000
  6790 C78     17.8366  40.0088  39.4773   C.2       1 RES1   0.0000
  6791 C79     26.7504  40.0088  40.7793   C.2       1 RES1   0.0000
  6792 C80     26.7504  40.2478  39.4773   C.2       1 RES1   0.0000
  6793 C81     22.9445  35.6714  40.2478   C.2       1 RES1   0.0000
  6794 C82     21.6425  35.6714  40.0088   C.2       1 RES1   0.0000
  6795 C83     22.9445  44.5852  40.0088   C.2       1 RES1   0.0000
  6796 C84     21.6425  44.5852  40.2478   C.2       1 RES1   0.0000
  6797 C85     31.0914  48.3947  53.5026   C.2       1 RES1   0.0000
  6798 C86     31.3304  49.6967  53.5026   C.2       1 RES1   0.0000
  6799 C87     31.3304  48.3947  44.5888   C.2       1 RES1   0.0000
  6800 C88     31.0914  49.6967  44.5888   C.2       1 RES1   0.0000
  6801 C89     35.6678  48.9262  48.3947   C.2       1 RES1   0.0000
  6802 C90     35.6678  49.1652  49.6967   C.2       1 RES1   0.0000
  6803 C91     26.7540  49.1652  48.3947   C.2       1 RES1   0.0000
  6804 C92     26.7540  48.9262  49.6967   C.2       1 RES1   0.0000
  6805 C93     30.5599  53.5026  48.9262   C.2       1 RES1   0.0000
  6806 C94     31.8619  53.5026  49.1652   C.2       1 RES1   0.0000
  6807 C95     30.5599  44.5888  49.1652   C.2       1 RES1   0.0000
  6808 C96     31.8619  44.5888  48.9262   C.2       1 RES1   0.0000
  6809 H25     23.2851  41.1021  35.6714   H         1 RES1   0.0000
  6810 H26     21.3019  39.1545  35.6714   H         1 RES1   0.0000
  6811 H27     21.3019  41.1021  44.5852   H         1 RES1   0.0000
  6812 H28     23.2851  39.1545  44.5852   H         1 RES1   0.0000
  6813 H29     17.8366  41.1199  41.1021   H         1 RES1   0.0000
  6814 H30     17.8366  39.1367  39.1545   H         1 RES1   0.0000
  6815 H31     26.7504  39.1367  41.1021   H         1 RES1   0.0000
  6816 H32     26.7504  41.1199  39.1545   H         1 RES1   0.0000
  6817 H33     23.2673  35.6714  41.1199   H         1 RES1   0.0000
  6818 H34     21.3197  35.6714  39.1367   H         1 RES1   0.0000
  6819 H35     23.2673  44.5852  39.1367   H         1 RES1   0.0000
  6820 H36     21.3197  44.5852  41.1199   H         1 RES1   0.0000
  6821 H37     30.2193  48.0719  53.5026   H         1 RES1   0.0000
  6822 H38     32.2025  50.0195  53.5026   H         1 RES1   0.0000
  6823 H39     32.2025  48.0719  44.5888   H         1 RES1   0.0000
  6824 H40     30.2193  50.0195  44.5888   H         1 RES1   0.0000
  6825 H41     35.6678  48.0541  48.0719   H         1 RES1   0.0000
  6826 H42     35.6678  50.0373  50.0195   H         1 RES1   0.0000
  6827 H43     26.7540  50.0373  48.0719   H         1 RES1   0.0000
  6828 H44     26.7540  48.0541  50.0195   H         1 RES1   0.0000
  6829 H45     30.2371  53.5026  48.0541   H         1 RES1   0.0000
  6830 H46     32.1847  53.5026  50.0373   H         1 RES1   0.0000
  6831 H47     30.2371  44.5888  50.0373   H         1 RES1   0.0000
  6832 H48     32.1847  44.5888  48.0541   H         1 RES1   0.0000
  6833 O97     19.1992  46.2225  52.3505   O.3       1 RES1   0.0000
  6834 O98     25.3878  51.8689  52.3505   O.3       1 RES1   0.0000
  6835 O99     25.3878  46.2225  45.7409   O.3       1 RES1   0.0000
  6836 O101    34.5157  37.0340  46.2225   O.3       1 RES1   0.0000
  6837 O102    34.5157  43.2226  51.8689   O.3       1 RES1   0.0000
  6838 O103    27.9061  43.2226  46.2225   O.3       1 RES1   0.0000
  6839 O105    28.3877  52.3505  37.0340   O.3       1 RES1   0.0000
  6840 O106    34.0341  52.3505  43.2226   O.3       1 RES1   0.0000
  6841 O107    28.3877  45.7409  43.2226   O.3       1 RES1   0.0000
  6842 O111    28.1166  42.9515  43.4331   O.3       1 RES1   0.0000
  6843 O112    34.3052  37.3051  43.4331   O.3       1 RES1   0.0000
  6844 O115    25.5983  45.9514  42.9515   O.3       1 RES1   0.0000
  6845 O116    25.5983  52.1400  37.3051   O.3       1 RES1   0.0000
  6846 O119    25.1167  43.4331  45.9514   O.3       1 RES1   0.0000
  6847 O120    19.4703  43.4331  52.1400   O.3       1 RES1   0.0000
  6848 O123    25.6892  43.5240  43.5240   O.3       1 RES1   0.0000
  6849 O125    34.6066  45.6500  52.4414   O.3       1 RES1   0.0000
  6850 O126    27.8152  52.4414  52.4414   O.3       1 RES1   0.0000
  6851 O127    27.8152  45.6500  45.6500   O.3       1 RES1   0.0000
  6852 O128    34.6066  52.4414  45.6500   O.3       1 RES1   0.0000
  6853 O129    18.8978  45.8105  52.6198   O.3       1 RES1   0.0000
  6854 O130    25.6892  52.2809  52.6198   O.3       1 RES1   0.0000
  6855 O131    25.6892  45.8105  45.4716   O.3       1 RES1   0.0000
  6856 O133    34.7850  36.7326  45.8105   O.3       1 RES1   0.0000
  6857 O134    34.7850  43.5240  52.2809   O.3       1 RES1   0.0000
  6858 O135    27.6368  43.5240  45.8105   O.3       1 RES1   0.0000
  6859 O137    27.9757  52.6198  36.7326   O.3       1 RES1   0.0000
  6860 O138    34.4461  52.6198  43.5240   O.3       1 RES1   0.0000
  6861 O139    27.9757  45.4716  43.5240   O.3       1 RES1   0.0000
  6862 O143    27.8152  43.3635  43.7024   O.3       1 RES1   0.0000
  6863 O144    34.6066  36.8931  43.7024   O.3       1 RES1   0.0000
  6864 O147    25.8676  45.6500  43.3635   O.3       1 RES1   0.0000
  6865 O148    25.8676  52.4414  36.8931   O.3       1 RES1   0.0000
  6866 O151    25.5287  43.7024  45.6500   O.3       1 RES1   0.0000
  6867 O152    19.0583  43.7024  52.4414   O.3       1 RES1   0.0000
  6868 O155    25.3522  43.1870  43.1870   O.3       1 RES1   0.0000
  6869 O157    34.2696  45.9870  52.1044   O.3       1 RES1   0.0000
  6870 O158    28.1522  52.1044  52.1044   O.3       1 RES1   0.0000
  6871 O159    28.1522  45.9870  45.9870   O.3       1 RES1   0.0000
  6872 O160    34.2696  52.1044  45.9870   O.3       1 RES1   0.0000
  6873 Zr1     20.2933  44.7855  53.7163   Zr        1 RES1   0.0000
  6874 Zr1     38.1281  44.7855  35.8815   Zr        1 RES1   0.0000
  6875 Zr2     24.2937  53.3059  53.7163   Zr        1 RES1   0.0000
  6876 Zr4     38.1281  53.3059  44.3751   Zr        1 RES1   0.0000
  6877 Zr5     18.0467  55.9629  44.7855   Zr        1 RES1   0.0000
  6878 Zr5     35.8815  38.1281  44.7855   Zr        1 RES1   0.0000
  6879 Zr6     35.8815  42.1285  53.3059   Zr        1 RES1   0.0000
  6880 Zr8     26.5403  55.9629  53.3059   Zr        1 RES1   0.0000
  6881 Zr9     26.9507  35.8815  55.9629   Zr        1 RES1   0.0000
  6882 Zr9     26.9507  53.7163  38.1281   Zr        1 RES1   0.0000
  6883 Zr10    35.4711  53.7163  42.1285   Zr        1 RES1   0.0000
  6884 Zr12    35.4711  44.3751  55.9629   Zr        1 RES1   0.0000
  6885 Zr14    29.2107  53.7029  53.2925   Zr        1 RES1   0.0000
  6886 Zr16    33.2111  53.7029  44.7989   Zr        1 RES1   0.0000
  6887 Zr18    35.4577  47.0455  53.7029   Zr        1 RES1   0.0000
  6888 Zr20    26.9641  51.0459  53.7029   Zr        1 RES1   0.0000
  6889 Zr22    35.8681  53.2925  47.0455   Zr        1 RES1   0.0000
  6890 Zr24    35.8681  44.7989  51.0459   Zr        1 RES1   0.0000
  6891 O2      23.0247  55.1363  35.8123   O.2       1 RES1   0.0000
  6892 O4      21.5623  55.1363  44.4443   O.2       1 RES1   0.0000
  6893 O6      17.9775  40.8595  55.1363   O.2       1 RES1   0.0000
  6894 O8      26.6095  39.3971  55.1363   O.2       1 RES1   0.0000
  6895 O10     37.3015  35.8123  40.8595   O.co2     1 RES1   0.0000
  6896 O12     37.3015  44.4443  39.3971   O.co2     1 RES1   0.0000
  6897 O50     23.3707  53.3742  37.9221   O.2       1 RES1   0.0000
  6898 O52     21.2163  53.3742  42.3345   O.2       1 RES1   0.0000
  6899 O54     20.0873  41.2055  53.3742   O.2       1 RES1   0.0000
  6900 O56     24.4997  39.0511  53.3742   O.2       1 RES1   0.0000
  6901 O58     35.5394  37.9221  41.2055   O.co2     1 RES1   0.0000
  6902 O60     35.5394  42.3345  39.0511   O.co2     1 RES1   0.0000
  6903 O85     31.9457  44.1607  55.1202   O.2       1 RES1   0.0000
  6904 O86     30.4761  36.0959  55.1202   O.2       1 RES1   0.0000
  6905 O89     37.2854  49.7805  44.1607   O.co2     1 RES1   0.0000
  6906 O90     37.2854  48.3109  36.0959   O.co2     1 RES1   0.0000
  6907 O93     26.3259  55.1202  49.7805   O.2       1 RES1   0.0000
  6908 O94     18.2611  55.1202  48.3109   O.2       1 RES1   0.0000
  6909 O97     37.0340  46.2225  34.5157   O.3       1 RES1   0.0000
  6910 O100    37.0340  51.8689  45.7409   O.3       1 RES1   0.0000
  6911 O101    16.6809  54.8688  46.2225   O.3       1 RES1   0.0000
  6912 O104    27.9061  54.8688  51.8689   O.3       1 RES1   0.0000
  6913 O105    28.3877  34.5157  54.8688   O.3       1 RES1   0.0000
  6914 O108    34.0341  45.7409  54.8688   O.3       1 RES1   0.0000
  6915 O109    34.3052  42.9515  54.6583   O.3       1 RES1   0.0000
  6916 O110    28.1166  37.3051  54.6583   O.3       1 RES1   0.0000
  6917 O113    36.8235  52.1400  42.9515   O.3       1 RES1   0.0000
  6918 O114    36.8235  45.9514  37.3051   O.3       1 RES1   0.0000
  6919 O117    25.1167  54.6583  52.1400   O.3       1 RES1   0.0000
  6920 O118    19.4703  54.6583  45.9514   O.3       1 RES1   0.0000
  6921 O121    18.8978  43.5240  54.5674   O.3       1 RES1   0.0000
  6922 O121    36.7326  43.5240  36.7326   O.3       1 RES1   0.0000
  6923 O122    25.6892  36.7326  54.5674   O.3       1 RES1   0.0000
  6924 O122    25.6892  54.5674  36.7326   O.3       1 RES1   0.0000
  6925 O124    18.8978  54.5674  43.5240   O.3       1 RES1   0.0000
  6926 O124    36.7326  36.7326  43.5240   O.3       1 RES1   0.0000
  6927 O129    36.7326  45.8105  34.7850   O.3       1 RES1   0.0000
  6928 O132    36.7326  52.2809  45.4716   O.3       1 RES1   0.0000
  6929 O133    16.9502  54.5674  45.8105   O.3       1 RES1   0.0000
  6930 O136    27.6368  54.5674  52.2809   O.3       1 RES1   0.0000
  6931 O137    27.9757  34.7850  54.5674   O.3       1 RES1   0.0000
  6932 O140    34.4461  45.4716  54.5674   O.3       1 RES1   0.0000
  6933 O141    34.6066  43.3635  54.3890   O.3       1 RES1   0.0000
  6934 O142    27.8152  36.8931  54.3890   O.3       1 RES1   0.0000
  6935 O145    36.5542  52.4414  43.3635   O.3       1 RES1   0.0000
  6936 O146    36.5542  45.6500  36.8931   O.3       1 RES1   0.0000
  6937 O149    25.5287  54.3890  52.4414   O.3       1 RES1   0.0000
  6938 O150    19.0583  54.3890  45.6500   O.3       1 RES1   0.0000
  6939 O153    19.2348  43.1870  54.9044   O.3       1 RES1   0.0000
  6940 O153    37.0696  43.1870  37.0696   O.3       1 RES1   0.0000
  6941 O154    25.3522  37.0696  54.9044   O.3       1 RES1   0.0000
  6942 O154    25.3522  54.9044  37.0696   O.3       1 RES1   0.0000
  6943 O156    19.2348  54.9044  43.1870   O.3       1 RES1   0.0000
  6944 O156    37.0696  37.0696  43.1870   O.3       1 RES1   0.0000
  6945 Zr2     42.1285  17.6363   0.2119   Zr        1 RES1   0.0000
  6946 Zr3     42.1285   9.1159   8.7055   Zr        1 RES1   0.0000
  6947 Zr7     44.3751   6.4589   9.1159   Zr        1 RES1   0.0000
  6948 Zr8     44.3751   2.4585  17.6363   Zr        1 RES1   0.0000
  6949 Zr9     44.7855   0.2119   2.4585   Zr        1 RES1   0.0000
  6950 Zr10    53.3059   0.2119   6.4589   Zr        1 RES1   0.0000
  6951 Zr11    44.7855   8.7055   6.4589   Zr        1 RES1   0.0000
  6952 Zr12    53.3059   8.7055   2.4585   Zr        1 RES1   0.0000
  6953 Zr13    51.0459   8.7189  17.6229   Zr        1 RES1   0.0000
  6954 Zr14    47.0455   0.1985  17.6229   Zr        1 RES1   0.0000
  6955 Zr15    47.0455   8.7189   9.1293   Zr        1 RES1   0.0000
  6956 Zr16    51.0459   0.1985   9.1293   Zr        1 RES1   0.0000
  6957 Zr17    53.2925  15.3763   8.7189   Zr        1 RES1   0.0000
  6958 Zr18    53.2925  11.3759   0.1985   Zr        1 RES1   0.0000
  6959 Zr19    44.7989  11.3759   8.7189   Zr        1 RES1   0.0000
  6960 Zr20    44.7989  15.3763   0.1985   Zr        1 RES1   0.0000
  6961 Zr21    44.3885  17.6229  15.3763   Zr        1 RES1   0.0000
  6962 Zr23    44.3885   9.1293  11.3759   Zr        1 RES1   0.0000
  6963 O1      39.3971   7.2855   0.1427   O.co2     1 RES1   0.0000
  6964 O2      40.8595   1.6319   0.1427   O.co2     1 RES1   0.0000
  6965 O3      40.8595   7.2855   8.7747   O.co2     1 RES1   0.0000
  6966 O4      39.3971   1.6319   8.7747   O.co2     1 RES1   0.0000
  6967 O5      35.8123   3.7275   7.2855   O.co2     1 RES1   0.0000
  6968 O6      35.8123   5.1899   1.6319   O.co2     1 RES1   0.0000
  6969 O7      44.4443   5.1899   7.2855   O.co2     1 RES1   0.0000
  6970 O8      44.4443   3.7275   1.6319   O.co2     1 RES1   0.0000
  6971 O9      42.9551   0.1427   3.7275   O.co2     1 RES1   0.0000
  6972 O11     42.9551   8.7747   5.1899   O.co2     1 RES1   0.0000
  6973 O13     49.7769  10.5493  17.6921   O.co2     1 RES1   0.0000
  6974 O14     48.3145  16.2029  17.6921   O.co2     1 RES1   0.0000
  6975 O15     48.3145  10.5493   9.0601   O.co2     1 RES1   0.0000
  6976 O16     49.7769  16.2029   9.0601   O.co2     1 RES1   0.0000
  6977 O17     53.3617  14.1073  10.5493   O.co2     1 RES1   0.0000
  6978 O18     53.3617  12.6449  16.2029   O.co2     1 RES1   0.0000
  6979 O19     44.7297  12.6449  10.5493   O.co2     1 RES1   0.0000
  6980 O20     44.7297  14.1073  16.2029   O.co2     1 RES1   0.0000
  6981 O21     46.2189  17.6921  14.1073   O.co2     1 RES1   0.0000
  6982 O22     51.8725  17.6921  12.6449   O.co2     1 RES1   0.0000
  6983 O23     46.2189   9.0601  12.6449   O.co2     1 RES1   0.0000
  6984 O24     51.8725   9.0601  14.1073   O.co2     1 RES1   0.0000
  6985 O25     39.0653  11.1396   0.4387   O.co2     1 RES1   0.0000
  6986 O26     41.1913  15.6126   0.4387   O.co2     1 RES1   0.0000
  6987 O27     41.1913  11.1396   8.4787   O.co2     1 RES1   0.0000
  6988 O28     39.0653  15.6126   8.4787   O.co2     1 RES1   0.0000
  6989 O29     36.1083   3.3957  11.1396   O.co2     1 RES1   0.0000
  6990 O30     36.1083   5.5217  15.6126   O.co2     1 RES1   0.0000
  6991 O31     44.1483   5.5217  11.1396   O.co2     1 RES1   0.0000
  6992 O32     44.1483   3.3957  15.6126   O.co2     1 RES1   0.0000
  6993 O33     46.8092   0.4387   3.3957   O.co2     1 RES1   0.0000
  6994 O34     51.2822   0.4387   5.5217   O.co2     1 RES1   0.0000
  6995 O35     46.8092   8.4787   5.5217   O.co2     1 RES1   0.0000
  6996 O36     51.2822   8.4787   3.3957   O.co2     1 RES1   0.0000
  6997 O37     50.1087   6.6952  17.3961   O.co2     1 RES1   0.0000
  6998 O38     47.9827   2.2222  17.3961   O.co2     1 RES1   0.0000
  6999 O39     47.9827   6.6952   9.3561   O.co2     1 RES1   0.0000
  7000 O40     50.1087   2.2222   9.3561   O.co2     1 RES1   0.0000
  7001 O41     53.0657  14.4391   6.6952   O.co2     1 RES1   0.0000
  7002 O42     53.0657  12.3131   2.2222   O.co2     1 RES1   0.0000
  7003 O43     45.0257  12.3131   6.6952   O.co2     1 RES1   0.0000
  7004 O44     45.0257  14.4391   2.2222   O.co2     1 RES1   0.0000
  7005 O45     42.3648  17.3961  14.4391   O.co2     1 RES1   0.0000
  7006 O46     37.8918  17.3961  12.3131   O.co2     1 RES1   0.0000
  7007 O47     42.3648   9.3561  12.3131   O.co2     1 RES1   0.0000
  7008 O48     37.8918   9.3561  14.4391   O.co2     1 RES1   0.0000
  7009 O49     39.0511   9.0476   2.2525   O.co2     1 RES1   0.0000
  7010 O50     41.2055  -0.1302   2.2525   O.co2     1 RES1   0.0000
  7011 O51     41.2055   9.0476   6.6649   O.co2     1 RES1   0.0000
  7012 O52     39.0511  -0.1302   6.6649   O.co2     1 RES1   0.0000
  7013 O53     37.9221   3.3815   9.0476   O.co2     1 RES1   0.0000
  7014 O54     37.9221   5.5359  -0.1302   O.co2     1 RES1   0.0000
  7015 O55     42.3345   5.5359   9.0476   O.co2     1 RES1   0.0000
  7016 O56     42.3345   3.3815  -0.1302   O.co2     1 RES1   0.0000
  7017 O57     44.7172   2.2525   3.3815   O.co2     1 RES1   0.0000
  7018 O59     44.7172   6.6649   5.5359   O.co2     1 RES1   0.0000
  7019 O61     50.1229   8.7872  15.5823   O.co2     1 RES1   0.0000
  7020 O62     47.9685  17.9650  15.5823   O.co2     1 RES1   0.0000
  7021 O63     47.9685   8.7872  11.1699   O.co2     1 RES1   0.0000
  7022 O64     50.1229  17.9650  11.1699   O.co2     1 RES1   0.0000
  7023 O65     51.2519  14.4533   8.7872   O.co2     1 RES1   0.0000
  7024 O66     51.2519  12.2989  17.9650   O.co2     1 RES1   0.0000
  7025 O67     46.8395  12.2989   8.7872   O.co2     1 RES1   0.0000
  7026 O68     46.8395  14.4533  17.9650   O.co2     1 RES1   0.0000
  7027 O69     44.4568  15.5823  14.4533   O.co2     1 RES1   0.0000
  7028 O70     53.6346  15.5823  12.2989   O.co2     1 RES1   0.0000
  7029 O71     44.4568  11.1699  12.2989   O.co2     1 RES1   0.0000
  7030 O72     53.6346  11.1699  14.4533   O.co2     1 RES1   0.0000
  7031 O73     39.3935   9.3437  16.2190   O.co2     1 RES1   0.0000
  7032 O74     40.8631  17.4085  16.2190   O.co2     1 RES1   0.0000
  7033 O75     40.8631   9.3437  10.5332   O.co2     1 RES1   0.0000
  7034 O76     39.3935  17.4085  10.5332   O.co2     1 RES1   0.0000
  7035 O77     51.8886   3.7239   9.3437   O.co2     1 RES1   0.0000
  7036 O78     51.8886   5.1935  17.4085   O.co2     1 RES1   0.0000
  7037 O79     46.2028   5.1935   9.3437   O.co2     1 RES1   0.0000
  7038 O80     46.2028   3.7239  17.4085   O.co2     1 RES1   0.0000
  7039 O81     45.0133  16.2190   3.7239   O.co2     1 RES1   0.0000
  7040 O82     53.0781  16.2190   5.1935   O.co2     1 RES1   0.0000
  7041 O83     45.0133  10.5332   5.1935   O.co2     1 RES1   0.0000
  7042 O84     53.0781  10.5332   3.7239   O.co2     1 RES1   0.0000
  7043 O85     49.7805   8.4911   1.6158   O.co2     1 RES1   0.0000
  7044 O86     48.3109   0.4263   1.6158   O.co2     1 RES1   0.0000
  7045 O87     48.3109   8.4911   7.3016   O.co2     1 RES1   0.0000
  7046 O88     49.7805   0.4263   7.3016   O.co2     1 RES1   0.0000
  7047 O91     42.9712  12.6413   8.4911   O.co2     1 RES1   0.0000
  7048 O92     42.9712  14.1109   0.4263   O.co2     1 RES1   0.0000
  7049 O93     44.1607   1.6158  14.1109   O.co2     1 RES1   0.0000
  7050 O94     36.0959   1.6158  12.6413   O.co2     1 RES1   0.0000
  7051 O95     44.1607   7.3016  12.6413   O.co2     1 RES1   0.0000
  7052 O96     36.0959   7.3016  14.1109   O.co2     1 RES1   0.0000
  7053 C1      38.5303  12.2900   0.4280   C.2       1 RES1   0.0000
  7054 C2      41.7263  14.4622   0.4280   C.2       1 RES1   0.0000
  7055 C3      41.7263  12.2900   8.4894   C.2       1 RES1   0.0000
  7056 C4      38.5303  14.4622   8.4894   C.2       1 RES1   0.0000
  7057 C5      36.0976   2.8607  12.2900   C.2       1 RES1   0.0000
  7058 C6      36.0976   6.0567  14.4622   C.2       1 RES1   0.0000
  7059 C7      44.1590   6.0567  12.2900   C.2       1 RES1   0.0000
  7060 C8      44.1590   2.8607  14.4622   C.2       1 RES1   0.0000
  7061 C9      47.9596   0.4280   2.8607   C.2       1 RES1   0.0000
  7062 C10     50.1318   0.4280   6.0567   C.2       1 RES1   0.0000
  7063 C11     47.9596   8.4894   6.0567   C.2       1 RES1   0.0000
  7064 C12     50.1318   8.4894   2.8607   C.2       1 RES1   0.0000
  7065 C13     50.6437   5.5448  17.4068   C.2       1 RES1   0.0000
  7066 C14     47.4477   3.3726  17.4068   C.2       1 RES1   0.0000
  7067 C15     47.4477   5.5448   9.3454   C.2       1 RES1   0.0000
  7068 C16     50.6437   3.3726   9.3454   C.2       1 RES1   0.0000
  7069 C17     53.0764  14.9741   5.5448   C.2       1 RES1   0.0000
  7070 C18     53.0764  11.7781   3.3726   C.2       1 RES1   0.0000
  7071 C19     45.0150  11.7781   5.5448   C.2       1 RES1   0.0000
  7072 C20     45.0150  14.9741   3.3726   C.2       1 RES1   0.0000
  7073 C21     41.2144  17.4068  14.9741   C.2       1 RES1   0.0000
  7074 C22     39.0422  17.4068  11.7781   C.2       1 RES1   0.0000
  7075 C23     41.2144   9.3454  11.7781   C.2       1 RES1   0.0000
  7076 C24     39.0422   9.3454  14.9741   C.2       1 RES1   0.0000
  7077 C25     39.4898  13.4742   0.4334   C.2       1 RES1   0.0000
  7078 C26     40.7668  13.2780   0.4334   C.2       1 RES1   0.0000
  7079 C27     40.7668  13.4742   8.4840   C.2       1 RES1   0.0000
  7080 C28     39.4898  13.2780   8.4840   C.2       1 RES1   0.0000
  7081 C29     36.1030   3.8202  13.4742   C.2       1 RES1   0.0000
  7082 C30     36.1030   5.0972  13.2780   C.2       1 RES1   0.0000
  7083 C31     44.1536   5.0972  13.4742   C.2       1 RES1   0.0000
  7084 C32     44.1536   3.8202  13.2780   C.2       1 RES1   0.0000
  7085 C33     49.1438   0.4334   3.8202   C.2       1 RES1   0.0000
  7086 C34     48.9476   0.4334   5.0972   C.2       1 RES1   0.0000
  7087 C35     49.1438   8.4840   5.0972   C.2       1 RES1   0.0000
  7088 C36     48.9476   8.4840   3.8202   C.2       1 RES1   0.0000
  7089 C37     49.6842   4.3606  17.4014   C.2       1 RES1   0.0000
  7090 C38     48.4072   4.5568  17.4014   C.2       1 RES1   0.0000
  7091 C39     48.4072   4.3606   9.3508   C.2       1 RES1   0.0000
  7092 C40     49.6842   4.5568   9.3508   C.2       1 RES1   0.0000
  7093 C41     53.0710  14.0146   4.3606   C.2       1 RES1   0.0000
  7094 C42     53.0710  12.7376   4.5568   C.2       1 RES1   0.0000
  7095 C43     45.0204  12.7376   4.3606   C.2       1 RES1   0.0000
  7096 C44     45.0204  14.0146   4.5568   C.2       1 RES1   0.0000
  7097 C45     40.0302  17.4014  14.0146   C.2       1 RES1   0.0000
  7098 C46     40.2264  17.4014  12.7376   C.2       1 RES1   0.0000
  7099 C47     40.0302   9.3508  12.7376   C.2       1 RES1   0.0000
  7100 C48     40.2264   9.3508  14.0146   C.2       1 RES1   0.0000
  7101 H1      39.1563  14.3427   0.4352   H         1 RES1   0.0000
  7102 H2      41.1003  12.4095   0.4352   H         1 RES1   0.0000
  7103 H3      41.1003  14.3427   8.4822   H         1 RES1   0.0000
  7104 H4      39.1563  12.4095   8.4822   H         1 RES1   0.0000
  7105 H5      36.1048   3.4867  14.3427   H         1 RES1   0.0000
  7106 H6      36.1048   5.4307  12.4095   H         1 RES1   0.0000
  7107 H7      44.1518   5.4307  14.3427   H         1 RES1   0.0000
  7108 H8      44.1518   3.4867  12.4095   H         1 RES1   0.0000
  7109 H9      50.0123   0.4352   3.4867   H         1 RES1   0.0000
  7110 H10     48.0791   0.4352   5.4307   H         1 RES1   0.0000
  7111 H11     50.0123   8.4822   5.4307   H         1 RES1   0.0000
  7112 H12     48.0791   8.4822   3.4867   H         1 RES1   0.0000
  7113 H13     50.0177   3.4921  17.3996   H         1 RES1   0.0000
  7114 H14     48.0737   5.4253  17.3996   H         1 RES1   0.0000
  7115 H15     48.0737   3.4921   9.3526   H         1 RES1   0.0000
  7116 H16     50.0177   5.4253   9.3526   H         1 RES1   0.0000
  7117 H17     53.0692  14.3481   3.4921   H         1 RES1   0.0000
  7118 H18     53.0692  12.4041   5.4253   H         1 RES1   0.0000
  7119 H19     45.0222  12.4041   3.4921   H         1 RES1   0.0000
  7120 H20     45.0222  14.3481   5.4253   H         1 RES1   0.0000
  7121 H21     39.1617  17.3996  14.3481   H         1 RES1   0.0000
  7122 H22     41.0949  17.3996  12.4041   H         1 RES1   0.0000
  7123 H23     39.1617   9.3526  12.4041   H         1 RES1   0.0000
  7124 H24     41.0949   9.3526  14.3481   H         1 RES1   0.0000
  7125 C49     39.0689   6.0603   0.0000   C.2       1 RES1   0.0000
  7126 C50     41.1877   2.8571   0.0000   C.2       1 RES1   0.0000
  7127 C51     41.1877   6.0603   8.9174   C.2       1 RES1   0.0000
  7128 C52     39.0689   2.8571   8.9174   C.2       1 RES1   0.0000
  7129 C53     35.6696   3.3993   6.0603   C.2       1 RES1   0.0000
  7130 C54     35.6696   5.5181   2.8571   C.2       1 RES1   0.0000
  7131 C55     44.5870   5.5181   6.0603   C.2       1 RES1   0.0000
  7132 C56     44.5870   3.3993   2.8571   C.2       1 RES1   0.0000
  7133 C57     41.7299   0.0000   3.3993   C.2       1 RES1   0.0000
  7134 C58     38.5267   0.0000   5.5181   C.2       1 RES1   0.0000
  7135 C59     41.7299   8.9174   5.5181   C.2       1 RES1   0.0000
  7136 C60     38.5267   8.9174   3.3993   C.2       1 RES1   0.0000
  7137 C61     50.1051  11.7745  17.8348   C.2       1 RES1   0.0000
  7138 C62     47.9863  14.9777  17.8348   C.2       1 RES1   0.0000
  7139 C63     47.9863  11.7745   8.9174   C.2       1 RES1   0.0000
  7140 C64     50.1051  14.9777   8.9174   C.2       1 RES1   0.0000
  7141 C65     53.5044  14.4355  11.7745   C.2       1 RES1   0.0000
  7142 C66     53.5044  12.3167  14.9777   C.2       1 RES1   0.0000
  7143 C67     44.5870  12.3167  11.7745   C.2       1 RES1   0.0000
  7144 C68     44.5870  14.4355  14.9777   C.2       1 RES1   0.0000
  7145 C69     47.4441  17.8348  14.4355   C.2       1 RES1   0.0000
  7146 C70     50.6473  17.8348  12.3167   C.2       1 RES1   0.0000
  7147 C71     47.4441   8.9174  12.3167   C.2       1 RES1   0.0000
  7148 C72     50.6473   8.9174  14.4355   C.2       1 RES1   0.0000
  7149 C73     40.2478   5.1097   0.0018   C.2       1 RES1   0.0000
  7150 C74     40.0088   3.8077   0.0018   C.2       1 RES1   0.0000
  7151 C75     40.0088   5.1097   8.9156   C.2       1 RES1   0.0000
  7152 C76     40.2478   3.8077   8.9156   C.2       1 RES1   0.0000
  7153 C77     35.6714   4.5782   5.1097   C.2       1 RES1   0.0000
  7154 C78     35.6714   4.3392   3.8077   C.2       1 RES1   0.0000
  7155 C79     44.5852   4.3392   5.1097   C.2       1 RES1   0.0000
  7156 C80     44.5852   4.5782   3.8077   C.2       1 RES1   0.0000
  7157 C81     40.7793   0.0018   4.5782   C.2       1 RES1   0.0000
  7158 C82     39.4773   0.0018   4.3392   C.2       1 RES1   0.0000
  7159 C83     40.7793   8.9156   4.3392   C.2       1 RES1   0.0000
  7160 C84     39.4773   8.9156   4.5782   C.2       1 RES1   0.0000
  7161 C85     48.9262  12.7251  17.8330   C.2       1 RES1   0.0000
  7162 C86     49.1652  14.0271  17.8330   C.2       1 RES1   0.0000
  7163 C87     49.1652  12.7251   8.9192   C.2       1 RES1   0.0000
  7164 C88     48.9262  14.0271   8.9192   C.2       1 RES1   0.0000
  7165 C89     53.5026  13.2566  12.7251   C.2       1 RES1   0.0000
  7166 C90     53.5026  13.4956  14.0271   C.2       1 RES1   0.0000
  7167 C91     44.5888  13.4956  12.7251   C.2       1 RES1   0.0000
  7168 C92     44.5888  13.2566  14.0271   C.2       1 RES1   0.0000
  7169 C93     48.3947  17.8330  13.2566   C.2       1 RES1   0.0000
  7170 C94     49.6967  17.8330  13.4956   C.2       1 RES1   0.0000
  7171 C95     48.3947   8.9192  13.4956   C.2       1 RES1   0.0000
  7172 C96     49.6967   8.9192  13.2566   C.2       1 RES1   0.0000
  7173 H25     41.1199   5.4325   0.0018   H         1 RES1   0.0000
  7174 H26     39.1367   3.4849   0.0018   H         1 RES1   0.0000
  7175 H27     39.1367   5.4325   8.9156   H         1 RES1   0.0000
  7176 H28     41.1199   3.4849   8.9156   H         1 RES1   0.0000
  7177 H29     35.6714   5.4503   5.4325   H         1 RES1   0.0000
  7178 H30     35.6714   3.4671   3.4849   H         1 RES1   0.0000
  7179 H31     44.5852   3.4671   5.4325   H         1 RES1   0.0000
  7180 H32     44.5852   5.4503   3.4849   H         1 RES1   0.0000
  7181 H33     41.1021   0.0018   5.4503   H         1 RES1   0.0000
  7182 H34     39.1545   0.0018   3.4671   H         1 RES1   0.0000
  7183 H35     41.1021   8.9156   3.4671   H         1 RES1   0.0000
  7184 H36     39.1545   8.9156   5.4503   H         1 RES1   0.0000
  7185 H37     48.0541  12.4023  17.8330   H         1 RES1   0.0000
  7186 H38     50.0373  14.3499  17.8330   H         1 RES1   0.0000
  7187 H39     50.0373  12.4023   8.9192   H         1 RES1   0.0000
  7188 H40     48.0541  14.3499   8.9192   H         1 RES1   0.0000
  7189 H41     53.5026  12.3845  12.4023   H         1 RES1   0.0000
  7190 H42     53.5026  14.3677  14.3499   H         1 RES1   0.0000
  7191 H43     44.5888  14.3677  12.4023   H         1 RES1   0.0000
  7192 H44     44.5888  12.3845  14.3499   H         1 RES1   0.0000
  7193 H45     48.0719  17.8330  12.3845   H         1 RES1   0.0000
  7194 H46     50.0195  17.8330  14.3677   H         1 RES1   0.0000
  7195 H47     48.0719   8.9192  14.3677   H         1 RES1   0.0000
  7196 H48     50.0195   8.9192  12.3845   H         1 RES1   0.0000
  7197 O98     43.2226  16.1993  16.6809   O.3       1 RES1   0.0000
  7198 O99     43.2226  10.5529  10.0713   O.3       1 RES1   0.0000
  7199 O101    52.3505   1.3644  10.5529   O.3       1 RES1   0.0000
  7200 O102    52.3505   7.5530  16.1993   O.3       1 RES1   0.0000
  7201 O103    45.7409   7.5530  10.5529   O.3       1 RES1   0.0000
  7202 O104    45.7409   1.3644  16.1993   O.3       1 RES1   0.0000
  7203 O105    46.2225  16.6809   1.3644   O.3       1 RES1   0.0000
  7204 O106    51.8689  16.6809   7.5530   O.3       1 RES1   0.0000
  7205 O107    46.2225  10.0713   7.5530   O.3       1 RES1   0.0000
  7206 O108    51.8689  10.0713   1.3644   O.3       1 RES1   0.0000
  7207 O109    52.1400   7.2819   1.1539   O.3       1 RES1   0.0000
  7208 O110    45.9514   1.6355   1.1539   O.3       1 RES1   0.0000
  7209 O111    45.9514   7.2819   7.7635   O.3       1 RES1   0.0000
  7210 O112    52.1400   1.6355   7.7635   O.3       1 RES1   0.0000
  7211 O115    43.4331  10.2818   7.2819   O.3       1 RES1   0.0000
  7212 O116    43.4331  16.4704   1.6355   O.3       1 RES1   0.0000
  7213 O117    42.9515   1.1539  16.4704   O.3       1 RES1   0.0000
  7214 O118    37.3051   1.1539  10.2818   O.3       1 RES1   0.0000
  7215 O119    42.9515   7.7635  10.2818   O.3       1 RES1   0.0000
  7216 O120    37.3051   7.7635  16.4704   O.3       1 RES1   0.0000
  7217 O122    43.5240   1.0630   1.0630   O.3       1 RES1   0.0000
  7218 O123    43.5240   7.8544   7.8544   O.3       1 RES1   0.0000
  7219 O125    52.4414   9.9804  16.7718   O.3       1 RES1   0.0000
  7220 O126    45.6500  16.7718  16.7718   O.3       1 RES1   0.0000
  7221 O127    45.6500   9.9804   9.9804   O.3       1 RES1   0.0000
  7222 O128    52.4414  16.7718   9.9804   O.3       1 RES1   0.0000
  7223 O130    43.5240  16.6113  16.9502   O.3       1 RES1   0.0000
  7224 O131    43.5240  10.1409   9.8020   O.3       1 RES1   0.0000
  7225 O133    52.6198   1.0630  10.1409   O.3       1 RES1   0.0000
  7226 O134    52.6198   7.8544  16.6113   O.3       1 RES1   0.0000
  7227 O135    45.4716   7.8544  10.1409   O.3       1 RES1   0.0000
  7228 O136    45.4716   1.0630  16.6113   O.3       1 RES1   0.0000
  7229 O137    45.8105  16.9502   1.0630   O.3       1 RES1   0.0000
  7230 O138    52.2809  16.9502   7.8544   O.3       1 RES1   0.0000
  7231 O139    45.8105   9.8020   7.8544   O.3       1 RES1   0.0000
  7232 O140    52.2809   9.8020   1.0630   O.3       1 RES1   0.0000
  7233 O141    52.4414   7.6939   0.8846   O.3       1 RES1   0.0000
  7234 O142    45.6500   1.2235   0.8846   O.3       1 RES1   0.0000
  7235 O143    45.6500   7.6939   8.0328   O.3       1 RES1   0.0000
  7236 O144    52.4414   1.2235   8.0328   O.3       1 RES1   0.0000
  7237 O147    43.7024   9.9804   7.6939   O.3       1 RES1   0.0000
  7238 O148    43.7024  16.7718   1.2235   O.3       1 RES1   0.0000
  7239 O149    43.3635   0.8846  16.7718   O.3       1 RES1   0.0000
  7240 O150    36.8931   0.8846   9.9804   O.3       1 RES1   0.0000
  7241 O151    43.3635   8.0328   9.9804   O.3       1 RES1   0.0000
  7242 O152    36.8931   8.0328  16.7718   O.3       1 RES1   0.0000
  7243 O154    43.1870   1.4000   1.4000   O.3       1 RES1   0.0000
  7244 O155    43.1870   7.5174   7.5174   O.3       1 RES1   0.0000
  7245 O157    52.1044  10.3174  16.4348   O.3       1 RES1   0.0000
  7246 O158    45.9870  16.4348  16.4348   O.3       1 RES1   0.0000
  7247 O159    45.9870  10.3174  10.3174   O.3       1 RES1   0.0000
  7248 O160    52.1044  16.4348  10.3174   O.3       1 RES1   0.0000
  7249 Zr1     55.9629   9.1159   0.2119   Zr        1 RES1   0.0000
  7250 Zr2     42.1285  -0.1985   0.2119   Zr        1 RES1   0.0000
  7251 Zr2     42.1285  -0.1985  18.0467   Zr        1 RES1   0.0000
  7252 Zr2     42.1285  17.6363  18.0467   Zr        1 RES1   0.0000
  7253 Zr4     55.9629  -0.1985   8.7055   Zr        1 RES1   0.0000
  7254 Zr4     55.9629  17.6363   8.7055   Zr        1 RES1   0.0000
  7255 Zr5     53.7163   2.4585   9.1159   Zr        1 RES1   0.0000
  7256 Zr6     53.7163   6.4589  -0.1985   Zr        1 RES1   0.0000
  7257 Zr6     53.7163   6.4589  17.6363   Zr        1 RES1   0.0000
  7258 Zr8     44.3751   2.4585  -0.1985   Zr        1 RES1   0.0000
  7259 Zr8     44.3751  20.2933  -0.1985   Zr        1 RES1   0.0000
  7260 Zr8     44.3751  20.2933  17.6363   Zr        1 RES1   0.0000
  7261 Zr9     44.7855   0.2119  20.2933   Zr        1 RES1   0.0000
  7262 Zr9     44.7855  18.0467   2.4585   Zr        1 RES1   0.0000
  7263 Zr10    53.3059  18.0467   6.4589   Zr        1 RES1   0.0000
  7264 Zr12    53.3059   8.7055  20.2933   Zr        1 RES1   0.0000
  7265 Zr13    51.0459   8.7189  -0.2119   Zr        1 RES1   0.0000
  7266 Zr14    47.0455   0.1985  -0.2119   Zr        1 RES1   0.0000
  7267 Zr14    47.0455  18.0333  -0.2119   Zr        1 RES1   0.0000
  7268 Zr14    47.0455  18.0333  17.6229   Zr        1 RES1   0.0000
  7269 Zr16    51.0459  18.0333   9.1293   Zr        1 RES1   0.0000
  7270 Zr17    53.2925  -2.4585   8.7189   Zr        1 RES1   0.0000
  7271 Zr18    53.2925  11.3759  18.0333   Zr        1 RES1   0.0000
  7272 Zr20    44.7989  -2.4585   0.1985   Zr        1 RES1   0.0000
  7273 Zr20    44.7989  -2.4585  18.0333   Zr        1 RES1   0.0000
  7274 Zr20    44.7989  15.3763  18.0333   Zr        1 RES1   0.0000
  7275 Zr21    44.3885  -0.2119  15.3763   Zr        1 RES1   0.0000
  7276 Zr21    44.3885  17.6229  -2.4585   Zr        1 RES1   0.0000
  7277 Zr22    53.7029  -0.2119  11.3759   Zr        1 RES1   0.0000
  7278 Zr22    53.7029  17.6229  11.3759   Zr        1 RES1   0.0000
  7279 Zr24    53.7029   9.1293  -2.4585   Zr        1 RES1   0.0000
  7280 Zr24    53.7029   9.1293  15.3763   Zr        1 RES1   0.0000
  7281 O2      40.8595  19.4667   0.1427   O.co2     1 RES1   0.0000
  7282 O4      39.3971  19.4667   8.7747   O.co2     1 RES1   0.0000
  7283 O6      35.8123   5.1899  19.4667   O.co2     1 RES1   0.0000
  7284 O8      44.4443   3.7275  19.4667   O.co2     1 RES1   0.0000
  7285 O10     55.1363   0.1427   5.1899   O.2       1 RES1   0.0000
  7286 O12     55.1363   8.7747   3.7275   O.2       1 RES1   0.0000
  7287 O14     48.3145  -1.6319  17.6921   O.2       1 RES1   0.0000
  7288 O16     49.7769  -1.6319   9.0601   O.2       1 RES1   0.0000
  7289 O18     53.3617  12.6449  -1.6319   O.2       1 RES1   0.0000
  7290 O20     44.7297  14.1073  -1.6319   O.2       1 RES1   0.0000
  7291 O50     41.2055  17.7046   2.2525   O.co2     1 RES1   0.0000
  7292 O52     39.0511  17.7046   6.6649   O.co2     1 RES1   0.0000
  7293 O54     37.9221   5.5359  17.7046   O.co2     1 RES1   0.0000
  7294 O56     42.3345   3.3815  17.7046   O.co2     1 RES1   0.0000
  7295 O58     53.3742   2.2525   5.5359   O.2       1 RES1   0.0000
  7296 O60     53.3742   6.6649   3.3815   O.2       1 RES1   0.0000
  7297 O62     47.9685   0.1302  15.5823   O.2       1 RES1   0.0000
  7298 O64     50.1229   0.1302  11.1699   O.2       1 RES1   0.0000
  7299 O66     51.2519  12.2989   0.1302   O.2       1 RES1   0.0000
  7300 O68     46.8395  14.4533   0.1302   O.2       1 RES1   0.0000
  7301 O73     39.3935   9.3437  -1.6158   O.2       1 RES1   0.0000
  7302 O74     40.8631  17.4085  -1.6158   O.2       1 RES1   0.0000
  7303 O81     45.0133  -1.6158   3.7239   O.2       1 RES1   0.0000
  7304 O82     53.0781  -1.6158   5.1935   O.2       1 RES1   0.0000
  7305 O85     49.7805   8.4911  19.4506   O.co2     1 RES1   0.0000
  7306 O86     48.3109   0.4263  19.4506   O.co2     1 RES1   0.0000
  7307 O89     55.1202  14.1109   8.4911   O.2       1 RES1   0.0000
  7308 O90     55.1202  12.6413   0.4263   O.2       1 RES1   0.0000
  7309 O93     44.1607  19.4506  14.1109   O.co2     1 RES1   0.0000
  7310 O94     36.0959  19.4506  12.6413   O.co2     1 RES1   0.0000
  7311 O97     54.8688  10.5529  -1.1539   O.3       1 RES1   0.0000
  7312 O98     43.2226  16.1993  -1.1539   O.3       1 RES1   0.0000
  7313 O100    54.8688  16.1993  10.0713   O.3       1 RES1   0.0000
  7314 O104    45.7409  19.1992  16.1993   O.3       1 RES1   0.0000
  7315 O105    46.2225  -1.1539   1.3644   O.3       1 RES1   0.0000
  7316 O105    46.2225  -1.1539  19.1992   O.3       1 RES1   0.0000
  7317 O106    51.8689  -1.1539   7.5530   O.3       1 RES1   0.0000
  7318 O108    51.8689  10.0713  19.1992   O.3       1 RES1   0.0000
  7319 O109    52.1400   7.2819  18.9887   O.3       1 RES1   0.0000
  7320 O110    45.9514   1.6355  18.9887   O.3       1 RES1   0.0000
  7321 O113    54.6583  -1.3644   7.2819   O.3       1 RES1   0.0000
  7322 O113    54.6583  16.4704   7.2819   O.3       1 RES1   0.0000
  7323 O114    54.6583  10.2818   1.6355   O.3       1 RES1   0.0000
  7324 O116    43.4331  -1.3644   1.6355   O.3       1 RES1   0.0000
  7325 O117    42.9515  18.9887  -1.3644   O.3       1 RES1   0.0000
  7326 O117    42.9515  18.9887  16.4704   O.3       1 RES1   0.0000
  7327 O118    37.3051  18.9887  10.2818   O.3       1 RES1   0.0000
  7328 O120    37.3051   7.7635  -1.3644   O.3       1 RES1   0.0000
  7329 O121    54.5674   7.8544   1.0630   O.3       1 RES1   0.0000
  7330 O122    43.5240   1.0630  18.8978   O.3       1 RES1   0.0000
  7331 O122    43.5240  18.8978   1.0630   O.3       1 RES1   0.0000
  7332 O124    54.5674   1.0630   7.8544   O.3       1 RES1   0.0000
  7333 O125    52.4414   9.9804  -1.0630   O.3       1 RES1   0.0000
  7334 O126    45.6500  -1.0630  16.7718   O.3       1 RES1   0.0000
  7335 O126    45.6500  16.7718  -1.0630   O.3       1 RES1   0.0000
  7336 O128    52.4414  -1.0630   9.9804   O.3       1 RES1   0.0000
  7337 O129    54.5674  10.1409  -0.8846   O.3       1 RES1   0.0000
  7338 O130    43.5240  16.6113  -0.8846   O.3       1 RES1   0.0000
  7339 O132    54.5674  16.6113   9.8020   O.3       1 RES1   0.0000
  7340 O136    45.4716  18.8978  16.6113   O.3       1 RES1   0.0000
  7341 O137    45.8105  -0.8846   1.0630   O.3       1 RES1   0.0000
  7342 O137    45.8105  -0.8846  18.8978   O.3       1 RES1   0.0000
  7343 O138    52.2809  -0.8846   7.8544   O.3       1 RES1   0.0000
  7344 O140    52.2809   9.8020  18.8978   O.3       1 RES1   0.0000
  7345 O141    52.4414   7.6939  18.7194   O.3       1 RES1   0.0000
  7346 O142    45.6500   1.2235  18.7194   O.3       1 RES1   0.0000
  7347 O145    54.3890  -1.0630   7.6939   O.3       1 RES1   0.0000
  7348 O145    54.3890  16.7718   7.6939   O.3       1 RES1   0.0000
  7349 O146    54.3890   9.9804   1.2235   O.3       1 RES1   0.0000
  7350 O148    43.7024  -1.0630   1.2235   O.3       1 RES1   0.0000
  7351 O149    43.3635  18.7194  -1.0630   O.3       1 RES1   0.0000
  7352 O149    43.3635  18.7194  16.7718   O.3       1 RES1   0.0000
  7353 O150    36.8931  18.7194   9.9804   O.3       1 RES1   0.0000
  7354 O152    36.8931   8.0328  -1.0630   O.3       1 RES1   0.0000
  7355 O153    54.9044   7.5174   1.4000   O.3       1 RES1   0.0000
  7356 O154    43.1870   1.4000  19.2348   O.3       1 RES1   0.0000
  7357 O154    43.1870  19.2348   1.4000   O.3       1 RES1   0.0000
  7358 O156    54.9044   1.4000   7.5174   O.3       1 RES1   0.0000
  7359 O157    52.1044  10.3174  -1.4000   O.3       1 RES1   0.0000
  7360 O158    45.9870  -1.4000  16.4348   O.3       1 RES1   0.0000
  7361 O158    45.9870  16.4348  -1.4000   O.3       1 RES1   0.0000
  7362 O160    52.1044  -1.4000  10.3174   O.3       1 RES1   0.0000
  7363 Zr3     42.1285   9.1159  26.5403   Zr        1 RES1   0.0000
  7364 Zr7     44.3751   6.4589  26.9507   Zr        1 RES1   0.0000
  7365 Zr8     44.3751   2.4585  35.4711   Zr        1 RES1   0.0000
  7366 Zr10    53.3059   0.2119  24.2937   Zr        1 RES1   0.0000
  7367 Zr11    44.7855   8.7055  24.2937   Zr        1 RES1   0.0000
  7368 Zr13    51.0459   8.7189  35.4577   Zr        1 RES1   0.0000
  7369 Zr14    47.0455   0.1985  35.4577   Zr        1 RES1   0.0000
  7370 Zr15    47.0455   8.7189  26.9641   Zr        1 RES1   0.0000
  7371 Zr16    51.0459   0.1985  26.9641   Zr        1 RES1   0.0000
  7372 Zr17    53.2925  15.3763  26.5537   Zr        1 RES1   0.0000
  7373 Zr19    44.7989  11.3759  26.5537   Zr        1 RES1   0.0000
  7374 Zr21    44.3885  17.6229  33.2111   Zr        1 RES1   0.0000
  7375 Zr23    44.3885   9.1293  29.2107   Zr        1 RES1   0.0000
  7376 O1      39.3971   7.2855  17.9775   O.co2     1 RES1   0.0000
  7377 O2      40.8595   1.6319  17.9775   O.co2     1 RES1   0.0000
  7378 O3      40.8595   7.2855  26.6095   O.co2     1 RES1   0.0000
  7379 O4      39.3971   1.6319  26.6095   O.co2     1 RES1   0.0000
  7380 O5      35.8123   3.7275  25.1203   O.co2     1 RES1   0.0000
  7381 O7      44.4443   5.1899  25.1203   O.co2     1 RES1   0.0000
  7382 O9      42.9551   0.1427  21.5623   O.co2     1 RES1   0.0000
  7383 O11     42.9551   8.7747  23.0247   O.co2     1 RES1   0.0000
  7384 O13     49.7769  10.5493  35.5269   O.co2     1 RES1   0.0000
  7385 O14     48.3145  16.2029  35.5269   O.co2     1 RES1   0.0000
  7386 O15     48.3145  10.5493  26.8949   O.co2     1 RES1   0.0000
  7387 O16     49.7769  16.2029  26.8949   O.co2     1 RES1   0.0000
  7388 O17     53.3617  14.1073  28.3841   O.co2     1 RES1   0.0000
  7389 O18     53.3617  12.6449  34.0377   O.co2     1 RES1   0.0000
  7390 O19     44.7297  12.6449  28.3841   O.co2     1 RES1   0.0000
  7391 O20     44.7297  14.1073  34.0377   O.co2     1 RES1   0.0000
  7392 O21     46.2189  17.6921  31.9421   O.co2     1 RES1   0.0000
  7393 O22     51.8725  17.6921  30.4797   O.co2     1 RES1   0.0000
  7394 O23     46.2189   9.0601  30.4797   O.co2     1 RES1   0.0000
  7395 O24     51.8725   9.0601  31.9421   O.co2     1 RES1   0.0000
  7396 O25     39.0653  11.1396  18.2735   O.co2     1 RES1   0.0000
  7397 O26     41.1913  15.6126  18.2735   O.co2     1 RES1   0.0000
  7398 O27     41.1913  11.1396  26.3135   O.co2     1 RES1   0.0000
  7399 O28     39.0653  15.6126  26.3135   O.co2     1 RES1   0.0000
  7400 O29     36.1083   3.3957  28.9744   O.co2     1 RES1   0.0000
  7401 O30     36.1083   5.5217  33.4474   O.co2     1 RES1   0.0000
  7402 O31     44.1483   5.5217  28.9744   O.co2     1 RES1   0.0000
  7403 O32     44.1483   3.3957  33.4474   O.co2     1 RES1   0.0000
  7404 O33     46.8092   0.4387  21.2305   O.co2     1 RES1   0.0000
  7405 O34     51.2822   0.4387  23.3565   O.co2     1 RES1   0.0000
  7406 O35     46.8092   8.4787  23.3565   O.co2     1 RES1   0.0000
  7407 O36     51.2822   8.4787  21.2305   O.co2     1 RES1   0.0000
  7408 O37     50.1087   6.6952  35.2309   O.co2     1 RES1   0.0000
  7409 O38     47.9827   2.2222  35.2309   O.co2     1 RES1   0.0000
  7410 O39     47.9827   6.6952  27.1909   O.co2     1 RES1   0.0000
  7411 O40     50.1087   2.2222  27.1909   O.co2     1 RES1   0.0000
  7412 O41     53.0657  14.4391  24.5300   O.co2     1 RES1   0.0000
  7413 O42     53.0657  12.3131  20.0570   O.co2     1 RES1   0.0000
  7414 O43     45.0257  12.3131  24.5300   O.co2     1 RES1   0.0000
  7415 O44     45.0257  14.4391  20.0570   O.co2     1 RES1   0.0000
  7416 O45     42.3648  17.3961  32.2739   O.co2     1 RES1   0.0000
  7417 O46     37.8918  17.3961  30.1479   O.co2     1 RES1   0.0000
  7418 O47     42.3648   9.3561  30.1479   O.co2     1 RES1   0.0000
  7419 O48     37.8918   9.3561  32.2739   O.co2     1 RES1   0.0000
  7420 O49     39.0511   9.0476  20.0873   O.co2     1 RES1   0.0000
  7421 O50     41.2055  -0.1302  20.0873   O.co2     1 RES1   0.0000
  7422 O51     41.2055   9.0476  24.4997   O.co2     1 RES1   0.0000
  7423 O52     39.0511  -0.1302  24.4997   O.co2     1 RES1   0.0000
  7424 O53     37.9221   3.3815  26.8824   O.co2     1 RES1   0.0000
  7425 O55     42.3345   5.5359  26.8824   O.co2     1 RES1   0.0000
  7426 O57     44.7172   2.2525  21.2163   O.co2     1 RES1   0.0000
  7427 O59     44.7172   6.6649  23.3707   O.co2     1 RES1   0.0000
  7428 O61     50.1229   8.7872  33.4171   O.co2     1 RES1   0.0000
  7429 O62     47.9685  17.9650  33.4171   O.co2     1 RES1   0.0000
  7430 O63     47.9685   8.7872  29.0047   O.co2     1 RES1   0.0000
  7431 O64     50.1229  17.9650  29.0047   O.co2     1 RES1   0.0000
  7432 O65     51.2519  14.4533  26.6220   O.co2     1 RES1   0.0000
  7433 O66     51.2519  12.2989  35.7998   O.co2     1 RES1   0.0000
  7434 O67     46.8395  12.2989  26.6220   O.co2     1 RES1   0.0000
  7435 O68     46.8395  14.4533  35.7998   O.co2     1 RES1   0.0000
  7436 O69     44.4568  15.5823  32.2881   O.co2     1 RES1   0.0000
  7437 O70     53.6346  15.5823  30.1337   O.co2     1 RES1   0.0000
  7438 O71     44.4568  11.1699  30.1337   O.co2     1 RES1   0.0000
  7439 O72     53.6346  11.1699  32.2881   O.co2     1 RES1   0.0000
  7440 O73     39.3935   9.3437  34.0538   O.co2     1 RES1   0.0000
  7441 O74     40.8631  17.4085  34.0538   O.co2     1 RES1   0.0000
  7442 O75     40.8631   9.3437  28.3680   O.co2     1 RES1   0.0000
  7443 O76     39.3935  17.4085  28.3680   O.co2     1 RES1   0.0000
  7444 O77     51.8886   3.7239  27.1785   O.co2     1 RES1   0.0000
  7445 O78     51.8886   5.1935  35.2433   O.co2     1 RES1   0.0000
  7446 O79     46.2028   5.1935  27.1785   O.co2     1 RES1   0.0000
  7447 O80     46.2028   3.7239  35.2433   O.co2     1 RES1   0.0000
  7448 O81     45.0133  16.2190  21.5587   O.co2     1 RES1   0.0000
  7449 O82     53.0781  16.2190  23.0283   O.co2     1 RES1   0.0000
  7450 O83     45.0133  10.5332  23.0283   O.co2     1 RES1   0.0000
  7451 O84     53.0781  10.5332  21.5587   O.co2     1 RES1   0.0000
  7452 O87     48.3109   8.4911  25.1364   O.co2     1 RES1   0.0000
  7453 O88     49.7805   0.4263  25.1364   O.co2     1 RES1   0.0000
  7454 O91     42.9712  12.6413  26.3259   O.co2     1 RES1   0.0000
  7455 O92     42.9712  14.1109  18.2611   O.co2     1 RES1   0.0000
  7456 O93     44.1607   1.6158  31.9457   O.co2     1 RES1   0.0000
  7457 O94     36.0959   1.6158  30.4761   O.co2     1 RES1   0.0000
  7458 O95     44.1607   7.3016  30.4761   O.co2     1 RES1   0.0000
  7459 O96     36.0959   7.3016  31.9457   O.co2     1 RES1   0.0000
  7460 C1      38.5303  12.2900  18.2628   C.2       1 RES1   0.0000
  7461 C2      41.7263  14.4622  18.2628   C.2       1 RES1   0.0000
  7462 C3      41.7263  12.2900  26.3242   C.2       1 RES1   0.0000
  7463 C4      38.5303  14.4622  26.3242   C.2       1 RES1   0.0000
  7464 C5      36.0976   2.8607  30.1248   C.2       1 RES1   0.0000
  7465 C6      36.0976   6.0567  32.2970   C.2       1 RES1   0.0000
  7466 C7      44.1590   6.0567  30.1248   C.2       1 RES1   0.0000
  7467 C8      44.1590   2.8607  32.2970   C.2       1 RES1   0.0000
  7468 C9      47.9596   0.4280  20.6955   C.2       1 RES1   0.0000
  7469 C10     50.1318   0.4280  23.8915   C.2       1 RES1   0.0000
  7470 C11     47.9596   8.4894  23.8915   C.2       1 RES1   0.0000
  7471 C12     50.1318   8.4894  20.6955   C.2       1 RES1   0.0000
  7472 C13     50.6437   5.5448  35.2416   C.2       1 RES1   0.0000
  7473 C14     47.4477   3.3726  35.2416   C.2       1 RES1   0.0000
  7474 C15     47.4477   5.5448  27.1802   C.2       1 RES1   0.0000
  7475 C16     50.6437   3.3726  27.1802   C.2       1 RES1   0.0000
  7476 C17     53.0764  14.9741  23.3796   C.2       1 RES1   0.0000
  7477 C18     53.0764  11.7781  21.2074   C.2       1 RES1   0.0000
  7478 C19     45.0150  11.7781  23.3796   C.2       1 RES1   0.0000
  7479 C20     45.0150  14.9741  21.2074   C.2       1 RES1   0.0000
  7480 C21     41.2144  17.4068  32.8089   C.2       1 RES1   0.0000
  7481 C22     39.0422  17.4068  29.6129   C.2       1 RES1   0.0000
  7482 C23     41.2144   9.3454  29.6129   C.2       1 RES1   0.0000
  7483 C24     39.0422   9.3454  32.8089   C.2       1 RES1   0.0000
  7484 C25     39.4898  13.4742  18.2682   C.2       1 RES1   0.0000
  7485 C26     40.7668  13.2780  18.2682   C.2       1 RES1   0.0000
  7486 C27     40.7668  13.4742  26.3188   C.2       1 RES1   0.0000
  7487 C28     39.4898  13.2780  26.3188   C.2       1 RES1   0.0000
  7488 C29     36.1030   3.8202  31.3090   C.2       1 RES1   0.0000
  7489 C30     36.1030   5.0972  31.1128   C.2       1 RES1   0.0000
  7490 C31     44.1536   5.0972  31.3090   C.2       1 RES1   0.0000
  7491 C32     44.1536   3.8202  31.1128   C.2       1 RES1   0.0000
  7492 C33     49.1438   0.4334  21.6550   C.2       1 RES1   0.0000
  7493 C34     48.9476   0.4334  22.9320   C.2       1 RES1   0.0000
  7494 C35     49.1438   8.4840  22.9320   C.2       1 RES1   0.0000
  7495 C36     48.9476   8.4840  21.6550   C.2       1 RES1   0.0000
  7496 C37     49.6842   4.3606  35.2362   C.2       1 RES1   0.0000
  7497 C38     48.4072   4.5568  35.2362   C.2       1 RES1   0.0000
  7498 C39     48.4072   4.3606  27.1856   C.2       1 RES1   0.0000
  7499 C40     49.6842   4.5568  27.1856   C.2       1 RES1   0.0000
  7500 C41     53.0710  14.0146  22.1954   C.2       1 RES1   0.0000
  7501 C42     53.0710  12.7376  22.3916   C.2       1 RES1   0.0000
  7502 C43     45.0204  12.7376  22.1954   C.2       1 RES1   0.0000
  7503 C44     45.0204  14.0146  22.3916   C.2       1 RES1   0.0000
  7504 C45     40.0302  17.4014  31.8494   C.2       1 RES1   0.0000
  7505 C46     40.2264  17.4014  30.5724   C.2       1 RES1   0.0000
  7506 C47     40.0302   9.3508  30.5724   C.2       1 RES1   0.0000
  7507 C48     40.2264   9.3508  31.8494   C.2       1 RES1   0.0000
  7508 H1      39.1563  14.3427  18.2700   H         1 RES1   0.0000
  7509 H2      41.1003  12.4095  18.2700   H         1 RES1   0.0000
  7510 H3      41.1003  14.3427  26.3170   H         1 RES1   0.0000
  7511 H4      39.1563  12.4095  26.3170   H         1 RES1   0.0000
  7512 H5      36.1048   3.4867  32.1775   H         1 RES1   0.0000
  7513 H6      36.1048   5.4307  30.2443   H         1 RES1   0.0000
  7514 H7      44.1518   5.4307  32.1775   H         1 RES1   0.0000
  7515 H8      44.1518   3.4867  30.2443   H         1 RES1   0.0000
  7516 H9      50.0123   0.4352  21.3215   H         1 RES1   0.0000
  7517 H10     48.0791   0.4352  23.2655   H         1 RES1   0.0000
  7518 H11     50.0123   8.4822  23.2655   H         1 RES1   0.0000
  7519 H12     48.0791   8.4822  21.3215   H         1 RES1   0.0000
  7520 H13     50.0177   3.4921  35.2344   H         1 RES1   0.0000
  7521 H14     48.0737   5.4253  35.2344   H         1 RES1   0.0000
  7522 H15     48.0737   3.4921  27.1874   H         1 RES1   0.0000
  7523 H16     50.0177   5.4253  27.1874   H         1 RES1   0.0000
  7524 H17     53.0692  14.3481  21.3269   H         1 RES1   0.0000
  7525 H18     53.0692  12.4041  23.2601   H         1 RES1   0.0000
  7526 H19     45.0222  12.4041  21.3269   H         1 RES1   0.0000
  7527 H20     45.0222  14.3481  23.2601   H         1 RES1   0.0000
  7528 H21     39.1617  17.3996  32.1829   H         1 RES1   0.0000
  7529 H22     41.0949  17.3996  30.2389   H         1 RES1   0.0000
  7530 H23     39.1617   9.3526  30.2389   H         1 RES1   0.0000
  7531 H24     41.0949   9.3526  32.1829   H         1 RES1   0.0000
  7532 C49     39.0689   6.0603  17.8348   C.2       1 RES1   0.0000
  7533 C50     41.1877   2.8571  17.8348   C.2       1 RES1   0.0000
  7534 C51     41.1877   6.0603  26.7522   C.2       1 RES1   0.0000
  7535 C52     39.0689   2.8571  26.7522   C.2       1 RES1   0.0000
  7536 C53     35.6696   3.3993  23.8951   C.2       1 RES1   0.0000
  7537 C54     35.6696   5.5181  20.6919   C.2       1 RES1   0.0000
  7538 C55     44.5870   5.5181  23.8951   C.2       1 RES1   0.0000
  7539 C56     44.5870   3.3993  20.6919   C.2       1 RES1   0.0000
  7540 C57     41.7299   0.0000  21.2341   C.2       1 RES1   0.0000
  7541 C58     38.5267   0.0000  23.3529   C.2       1 RES1   0.0000
  7542 C59     41.7299   8.9174  23.3529   C.2       1 RES1   0.0000
  7543 C60     38.5267   8.9174  21.2341   C.2       1 RES1   0.0000
  7544 C61     50.1051  11.7745  35.6696   C.2       1 RES1   0.0000
  7545 C62     47.9863  14.9777  35.6696   C.2       1 RES1   0.0000
  7546 C63     47.9863  11.7745  26.7522   C.2       1 RES1   0.0000
  7547 C64     50.1051  14.9777  26.7522   C.2       1 RES1   0.0000
  7548 C65     53.5044  14.4355  29.6093   C.2       1 RES1   0.0000
  7549 C66     53.5044  12.3167  32.8125   C.2       1 RES1   0.0000
  7550 C67     44.5870  12.3167  29.6093   C.2       1 RES1   0.0000
  7551 C68     44.5870  14.4355  32.8125   C.2       1 RES1   0.0000
  7552 C69     47.4441  17.8348  32.2703   C.2       1 RES1   0.0000
  7553 C70     50.6473  17.8348  30.1515   C.2       1 RES1   0.0000
  7554 C71     47.4441   8.9174  30.1515   C.2       1 RES1   0.0000
  7555 C72     50.6473   8.9174  32.2703   C.2       1 RES1   0.0000
  7556 C73     40.2478   5.1097  17.8366   C.2       1 RES1   0.0000
  7557 C74     40.0088   3.8077  17.8366   C.2       1 RES1   0.0000
  7558 C75     40.0088   5.1097  26.7504   C.2       1 RES1   0.0000
  7559 C76     40.2478   3.8077  26.7504   C.2       1 RES1   0.0000
  7560 C77     35.6714   4.5782  22.9445   C.2       1 RES1   0.0000
  7561 C78     35.6714   4.3392  21.6425   C.2       1 RES1   0.0000
  7562 C79     44.5852   4.3392  22.9445   C.2       1 RES1   0.0000
  7563 C80     44.5852   4.5782  21.6425   C.2       1 RES1   0.0000
  7564 C81     40.7793   0.0018  22.4130   C.2       1 RES1   0.0000
  7565 C82     39.4773   0.0018  22.1740   C.2       1 RES1   0.0000
  7566 C83     40.7793   8.9156  22.1740   C.2       1 RES1   0.0000
  7567 C84     39.4773   8.9156  22.4130   C.2       1 RES1   0.0000
  7568 C85     48.9262  12.7251  35.6678   C.2       1 RES1   0.0000
  7569 C86     49.1652  14.0271  35.6678   C.2       1 RES1   0.0000
  7570 C87     49.1652  12.7251  26.7540   C.2       1 RES1   0.0000
  7571 C88     48.9262  14.0271  26.7540   C.2       1 RES1   0.0000
  7572 C89     53.5026  13.2566  30.5599   C.2       1 RES1   0.0000
  7573 C90     53.5026  13.4956  31.8619   C.2       1 RES1   0.0000
  7574 C91     44.5888  13.4956  30.5599   C.2       1 RES1   0.0000
  7575 C92     44.5888  13.2566  31.8619   C.2       1 RES1   0.0000
  7576 C93     48.3947  17.8330  31.0914   C.2       1 RES1   0.0000
  7577 C94     49.6967  17.8330  31.3304   C.2       1 RES1   0.0000
  7578 C95     48.3947   8.9192  31.3304   C.2       1 RES1   0.0000
  7579 C96     49.6967   8.9192  31.0914   C.2       1 RES1   0.0000
  7580 H25     41.1199   5.4325  17.8366   H         1 RES1   0.0000
  7581 H26     39.1367   3.4849  17.8366   H         1 RES1   0.0000
  7582 H27     39.1367   5.4325  26.7504   H         1 RES1   0.0000
  7583 H28     41.1199   3.4849  26.7504   H         1 RES1   0.0000
  7584 H29     35.6714   5.4503  23.2673   H         1 RES1   0.0000
  7585 H30     35.6714   3.4671  21.3197   H         1 RES1   0.0000
  7586 H31     44.5852   3.4671  23.2673   H         1 RES1   0.0000
  7587 H32     44.5852   5.4503  21.3197   H         1 RES1   0.0000
  7588 H33     41.1021   0.0018  23.2851   H         1 RES1   0.0000
  7589 H34     39.1545   0.0018  21.3019   H         1 RES1   0.0000
  7590 H35     41.1021   8.9156  21.3019   H         1 RES1   0.0000
  7591 H36     39.1545   8.9156  23.2851   H         1 RES1   0.0000
  7592 H37     48.0541  12.4023  35.6678   H         1 RES1   0.0000
  7593 H38     50.0373  14.3499  35.6678   H         1 RES1   0.0000
  7594 H39     50.0373  12.4023  26.7540   H         1 RES1   0.0000
  7595 H40     48.0541  14.3499  26.7540   H         1 RES1   0.0000
  7596 H41     53.5026  12.3845  30.2371   H         1 RES1   0.0000
  7597 H42     53.5026  14.3677  32.1847   H         1 RES1   0.0000
  7598 H43     44.5888  14.3677  30.2371   H         1 RES1   0.0000
  7599 H44     44.5888  12.3845  32.1847   H         1 RES1   0.0000
  7600 H45     48.0719  17.8330  30.2193   H         1 RES1   0.0000
  7601 H46     50.0195  17.8330  32.2025   H         1 RES1   0.0000
  7602 H47     48.0719   8.9192  32.2025   H         1 RES1   0.0000
  7603 H48     50.0195   8.9192  30.2193   H         1 RES1   0.0000
  7604 O98     43.2226  16.1993  34.5157   O.3       1 RES1   0.0000
  7605 O99     43.2226  10.5529  27.9061   O.3       1 RES1   0.0000
  7606 O101    52.3505   1.3644  28.3877   O.3       1 RES1   0.0000
  7607 O102    52.3505   7.5530  34.0341   O.3       1 RES1   0.0000
  7608 O103    45.7409   7.5530  28.3877   O.3       1 RES1   0.0000
  7609 O104    45.7409   1.3644  34.0341   O.3       1 RES1   0.0000
  7610 O105    46.2225  16.6809  19.1992   O.3       1 RES1   0.0000
  7611 O106    51.8689  16.6809  25.3878   O.3       1 RES1   0.0000
  7612 O107    46.2225  10.0713  25.3878   O.3       1 RES1   0.0000
  7613 O111    45.9514   7.2819  25.5983   O.3       1 RES1   0.0000
  7614 O112    52.1400   1.6355  25.5983   O.3       1 RES1   0.0000
  7615 O115    43.4331  10.2818  25.1167   O.3       1 RES1   0.0000
  7616 O116    43.4331  16.4704  19.4703   O.3       1 RES1   0.0000
  7617 O117    42.9515   1.1539  34.3052   O.3       1 RES1   0.0000
  7618 O118    37.3051   1.1539  28.1166   O.3       1 RES1   0.0000
  7619 O119    42.9515   7.7635  28.1166   O.3       1 RES1   0.0000
  7620 O120    37.3051   7.7635  34.3052   O.3       1 RES1   0.0000
  7621 O123    43.5240   7.8544  25.6892   O.3       1 RES1   0.0000
  7622 O125    52.4414   9.9804  34.6066   O.3       1 RES1   0.0000
  7623 O126    45.6500  16.7718  34.6066   O.3       1 RES1   0.0000
  7624 O127    45.6500   9.9804  27.8152   O.3       1 RES1   0.0000
  7625 O128    52.4414  16.7718  27.8152   O.3       1 RES1   0.0000
  7626 O130    43.5240  16.6113  34.7850   O.3       1 RES1   0.0000
  7627 O131    43.5240  10.1409  27.6368   O.3       1 RES1   0.0000
  7628 O133    52.6198   1.0630  27.9757   O.3       1 RES1   0.0000
  7629 O134    52.6198   7.8544  34.4461   O.3       1 RES1   0.0000
  7630 O135    45.4716   7.8544  27.9757   O.3       1 RES1   0.0000
  7631 O136    45.4716   1.0630  34.4461   O.3       1 RES1   0.0000
  7632 O137    45.8105  16.9502  18.8978   O.3       1 RES1   0.0000
  7633 O138    52.2809  16.9502  25.6892   O.3       1 RES1   0.0000
  7634 O139    45.8105   9.8020  25.6892   O.3       1 RES1   0.0000
  7635 O143    45.6500   7.6939  25.8676   O.3       1 RES1   0.0000
  7636 O144    52.4414   1.2235  25.8676   O.3       1 RES1   0.0000
  7637 O147    43.7024   9.9804  25.5287   O.3       1 RES1   0.0000
  7638 O148    43.7024  16.7718  19.0583   O.3       1 RES1   0.0000
  7639 O149    43.3635   0.8846  34.6066   O.3       1 RES1   0.0000
  7640 O150    36.8931   0.8846  27.8152   O.3       1 RES1   0.0000
  7641 O151    43.3635   8.0328  27.8152   O.3       1 RES1   0.0000
  7642 O152    36.8931   8.0328  34.6066   O.3       1 RES1   0.0000
  7643 O155    43.1870   7.5174  25.3522   O.3       1 RES1   0.0000
  7644 O157    52.1044  10.3174  34.2696   O.3       1 RES1   0.0000
  7645 O158    45.9870  16.4348  34.2696   O.3       1 RES1   0.0000
  7646 O159    45.9870  10.3174  28.1522   O.3       1 RES1   0.0000
  7647 O160    52.1044  16.4348  28.1522   O.3       1 RES1   0.0000
  7648 Zr1     55.9629   9.1159  18.0467   Zr        1 RES1   0.0000
  7649 Zr2     42.1285  -0.1985  35.8815   Zr        1 RES1   0.0000
  7650 Zr2     42.1285  17.6363  35.8815   Zr        1 RES1   0.0000
  7651 Zr4     55.9629  -0.1985  26.5403   Zr        1 RES1   0.0000
  7652 Zr4     55.9629  17.6363  26.5403   Zr        1 RES1   0.0000
  7653 Zr5     53.7163   2.4585  26.9507   Zr        1 RES1   0.0000
  7654 Zr6     53.7163   6.4589  35.4711   Zr        1 RES1   0.0000
  7655 Zr8     44.3751  20.2933  35.4711   Zr        1 RES1   0.0000
  7656 Zr9     44.7855   0.2119  38.1281   Zr        1 RES1   0.0000
  7657 Zr9     44.7855  18.0467  20.2933   Zr        1 RES1   0.0000
  7658 Zr10    53.3059  18.0467  24.2937   Zr        1 RES1   0.0000
  7659 Zr12    53.3059   8.7055  38.1281   Zr        1 RES1   0.0000
  7660 Zr14    47.0455  18.0333  35.4577   Zr        1 RES1   0.0000
  7661 Zr16    51.0459  18.0333  26.9641   Zr        1 RES1   0.0000
  7662 Zr17    53.2925  -2.4585  26.5537   Zr        1 RES1   0.0000
  7663 Zr18    53.2925  11.3759  35.8681   Zr        1 RES1   0.0000
  7664 Zr20    44.7989  -2.4585  35.8681   Zr        1 RES1   0.0000
  7665 Zr20    44.7989  15.3763  35.8681   Zr        1 RES1   0.0000
  7666 Zr21    44.3885  -0.2119  33.2111   Zr        1 RES1   0.0000
  7667 Zr22    53.7029  -0.2119  29.2107   Zr        1 RES1   0.0000
  7668 Zr22    53.7029  17.6229  29.2107   Zr        1 RES1   0.0000
  7669 Zr24    53.7029   9.1293  33.2111   Zr        1 RES1   0.0000
  7670 O2      40.8595  19.4667  17.9775   O.co2     1 RES1   0.0000
  7671 O4      39.3971  19.4667  26.6095   O.co2     1 RES1   0.0000
  7672 O6      35.8123   5.1899  37.3015   O.co2     1 RES1   0.0000
  7673 O8      44.4443   3.7275  37.3015   O.co2     1 RES1   0.0000
  7674 O10     55.1363   0.1427  23.0247   O.2       1 RES1   0.0000
  7675 O12     55.1363   8.7747  21.5623   O.2       1 RES1   0.0000
  7676 O14     48.3145  -1.6319  35.5269   O.2       1 RES1   0.0000
  7677 O16     49.7769  -1.6319  26.8949   O.2       1 RES1   0.0000
  7678 O50     41.2055  17.7046  20.0873   O.co2     1 RES1   0.0000
  7679 O52     39.0511  17.7046  24.4997   O.co2     1 RES1   0.0000
  7680 O54     37.9221   5.5359  35.5394   O.co2     1 RES1   0.0000
  7681 O56     42.3345   3.3815  35.5394   O.co2     1 RES1   0.0000
  7682 O58     53.3742   2.2525  23.3707   O.2       1 RES1   0.0000
  7683 O60     53.3742   6.6649  21.2163   O.2       1 RES1   0.0000
  7684 O62     47.9685   0.1302  33.4171   O.2       1 RES1   0.0000
  7685 O64     50.1229   0.1302  29.0047   O.2       1 RES1   0.0000
  7686 O81     45.0133  -1.6158  21.5587   O.2       1 RES1   0.0000
  7687 O82     53.0781  -1.6158  23.0283   O.2       1 RES1   0.0000
  7688 O85     49.7805   8.4911  37.2854   O.co2     1 RES1   0.0000
  7689 O86     48.3109   0.4263  37.2854   O.co2     1 RES1   0.0000
  7690 O89     55.1202  14.1109  26.3259   O.2       1 RES1   0.0000
  7691 O90     55.1202  12.6413  18.2611   O.2       1 RES1   0.0000
  7692 O93     44.1607  19.4506  31.9457   O.co2     1 RES1   0.0000
  7693 O94     36.0959  19.4506  30.4761   O.co2     1 RES1   0.0000
  7694 O97     54.8688  10.5529  16.6809   O.3       1 RES1   0.0000
  7695 O100    54.8688  16.1993  27.9061   O.3       1 RES1   0.0000
  7696 O104    45.7409  19.1992  34.0341   O.3       1 RES1   0.0000
  7697 O105    46.2225  -1.1539  37.0340   O.3       1 RES1   0.0000
  7698 O106    51.8689  -1.1539  25.3878   O.3       1 RES1   0.0000
  7699 O108    51.8689  10.0713  37.0340   O.3       1 RES1   0.0000
  7700 O109    52.1400   7.2819  36.8235   O.3       1 RES1   0.0000
  7701 O110    45.9514   1.6355  36.8235   O.3       1 RES1   0.0000
  7702 O113    54.6583  -1.3644  25.1167   O.3       1 RES1   0.0000
  7703 O113    54.6583  16.4704  25.1167   O.3       1 RES1   0.0000
  7704 O114    54.6583  10.2818  19.4703   O.3       1 RES1   0.0000
  7705 O116    43.4331  -1.3644  19.4703   O.3       1 RES1   0.0000
  7706 O117    42.9515  18.9887  34.3052   O.3       1 RES1   0.0000
  7707 O118    37.3051  18.9887  28.1166   O.3       1 RES1   0.0000
  7708 O121    54.5674   7.8544  18.8978   O.3       1 RES1   0.0000
  7709 O122    43.5240   1.0630  36.7326   O.3       1 RES1   0.0000
  7710 O122    43.5240  18.8978  18.8978   O.3       1 RES1   0.0000
  7711 O124    54.5674   1.0630  25.6892   O.3       1 RES1   0.0000
  7712 O126    45.6500  -1.0630  34.6066   O.3       1 RES1   0.0000
  7713 O128    52.4414  -1.0630  27.8152   O.3       1 RES1   0.0000
  7714 O129    54.5674  10.1409  16.9502   O.3       1 RES1   0.0000
  7715 O132    54.5674  16.6113  27.6368   O.3       1 RES1   0.0000
  7716 O136    45.4716  18.8978  34.4461   O.3       1 RES1   0.0000
  7717 O137    45.8105  -0.8846  36.7326   O.3       1 RES1   0.0000
  7718 O138    52.2809  -0.8846  25.6892   O.3       1 RES1   0.0000
  7719 O140    52.2809   9.8020  36.7326   O.3       1 RES1   0.0000
  7720 O141    52.4414   7.6939  36.5542   O.3       1 RES1   0.0000
  7721 O142    45.6500   1.2235  36.5542   O.3       1 RES1   0.0000
  7722 O145    54.3890  -1.0630  25.5287   O.3       1 RES1   0.0000
  7723 O145    54.3890  16.7718  25.5287   O.3       1 RES1   0.0000
  7724 O146    54.3890   9.9804  19.0583   O.3       1 RES1   0.0000
  7725 O148    43.7024  -1.0630  19.0583   O.3       1 RES1   0.0000
  7726 O149    43.3635  18.7194  34.6066   O.3       1 RES1   0.0000
  7727 O150    36.8931  18.7194  27.8152   O.3       1 RES1   0.0000
  7728 O153    54.9044   7.5174  19.2348   O.3       1 RES1   0.0000
  7729 O154    43.1870   1.4000  37.0696   O.3       1 RES1   0.0000
  7730 O154    43.1870  19.2348  19.2348   O.3       1 RES1   0.0000
  7731 O156    54.9044   1.4000  25.3522   O.3       1 RES1   0.0000
  7732 O158    45.9870  -1.4000  34.2696   O.3       1 RES1   0.0000
  7733 O160    52.1044  -1.4000  28.1522   O.3       1 RES1   0.0000
  7734 Zr3     42.1285   9.1159  44.3751   Zr        1 RES1   0.0000
  7735 Zr7     44.3751   6.4589  44.7855   Zr        1 RES1   0.0000
  7736 Zr8     44.3751   2.4585  53.3059   Zr        1 RES1   0.0000
  7737 Zr10    53.3059   0.2119  42.1285   Zr        1 RES1   0.0000
  7738 Zr11    44.7855   8.7055  42.1285   Zr        1 RES1   0.0000
  7739 Zr13    51.0459   8.7189  53.2925   Zr        1 RES1   0.0000
  7740 Zr14    47.0455   0.1985  53.2925   Zr        1 RES1   0.0000
  7741 Zr15    47.0455   8.7189  44.7989   Zr        1 RES1   0.0000
  7742 Zr16    51.0459   0.1985  44.7989   Zr        1 RES1   0.0000
  7743 Zr17    53.2925  15.3763  44.3885   Zr        1 RES1   0.0000
  7744 Zr19    44.7989  11.3759  44.3885   Zr        1 RES1   0.0000
  7745 Zr21    44.3885  17.6229  51.0459   Zr        1 RES1   0.0000
  7746 Zr23    44.3885   9.1293  47.0455   Zr        1 RES1   0.0000
  7747 O1      39.3971   7.2855  35.8123   O.co2     1 RES1   0.0000
  7748 O2      40.8595   1.6319  35.8123   O.co2     1 RES1   0.0000
  7749 O3      40.8595   7.2855  44.4443   O.co2     1 RES1   0.0000
  7750 O4      39.3971   1.6319  44.4443   O.co2     1 RES1   0.0000
  7751 O5      35.8123   3.7275  42.9551   O.co2     1 RES1   0.0000
  7752 O7      44.4443   5.1899  42.9551   O.co2     1 RES1   0.0000
  7753 O9      42.9551   0.1427  39.3971   O.co2     1 RES1   0.0000
  7754 O11     42.9551   8.7747  40.8595   O.co2     1 RES1   0.0000
  7755 O13     49.7769  10.5493  53.3617   O.co2     1 RES1   0.0000
  7756 O14     48.3145  16.2029  53.3617   O.co2     1 RES1   0.0000
  7757 O15     48.3145  10.5493  44.7297   O.co2     1 RES1   0.0000
  7758 O16     49.7769  16.2029  44.7297   O.co2     1 RES1   0.0000
  7759 O17     53.3617  14.1073  46.2189   O.co2     1 RES1   0.0000
  7760 O18     53.3617  12.6449  51.8725   O.co2     1 RES1   0.0000
  7761 O19     44.7297  12.6449  46.2189   O.co2     1 RES1   0.0000
  7762 O20     44.7297  14.1073  51.8725   O.co2     1 RES1   0.0000
  7763 O21     46.2189  17.6921  49.7769   O.co2     1 RES1   0.0000
  7764 O22     51.8725  17.6921  48.3145   O.co2     1 RES1   0.0000
  7765 O23     46.2189   9.0601  48.3145   O.co2     1 RES1   0.0000
  7766 O24     51.8725   9.0601  49.7769   O.co2     1 RES1   0.0000
  7767 O25     39.0653  11.1396  36.1083   O.co2     1 RES1   0.0000
  7768 O26     41.1913  15.6126  36.1083   O.co2     1 RES1   0.0000
  7769 O27     41.1913  11.1396  44.1483   O.co2     1 RES1   0.0000
  7770 O28     39.0653  15.6126  44.1483   O.co2     1 RES1   0.0000
  7771 O29     36.1083   3.3957  46.8092   O.co2     1 RES1   0.0000
  7772 O30     36.1083   5.5217  51.2822   O.co2     1 RES1   0.0000
  7773 O31     44.1483   5.5217  46.8092   O.co2     1 RES1   0.0000
  7774 O32     44.1483   3.3957  51.2822   O.co2     1 RES1   0.0000
  7775 O33     46.8092   0.4387  39.0653   O.co2     1 RES1   0.0000
  7776 O34     51.2822   0.4387  41.1913   O.co2     1 RES1   0.0000
  7777 O35     46.8092   8.4787  41.1913   O.co2     1 RES1   0.0000
  7778 O36     51.2822   8.4787  39.0653   O.co2     1 RES1   0.0000
  7779 O37     50.1087   6.6952  53.0657   O.co2     1 RES1   0.0000
  7780 O38     47.9827   2.2222  53.0657   O.co2     1 RES1   0.0000
  7781 O39     47.9827   6.6952  45.0257   O.co2     1 RES1   0.0000
  7782 O40     50.1087   2.2222  45.0257   O.co2     1 RES1   0.0000
  7783 O41     53.0657  14.4391  42.3648   O.co2     1 RES1   0.0000
  7784 O42     53.0657  12.3131  37.8918   O.co2     1 RES1   0.0000
  7785 O43     45.0257  12.3131  42.3648   O.co2     1 RES1   0.0000
  7786 O44     45.0257  14.4391  37.8918   O.co2     1 RES1   0.0000
  7787 O45     42.3648  17.3961  50.1087   O.co2     1 RES1   0.0000
  7788 O46     37.8918  17.3961  47.9827   O.co2     1 RES1   0.0000
  7789 O47     42.3648   9.3561  47.9827   O.co2     1 RES1   0.0000
  7790 O48     37.8918   9.3561  50.1087   O.co2     1 RES1   0.0000
  7791 O49     39.0511   9.0476  37.9221   O.co2     1 RES1   0.0000
  7792 O50     41.2055  -0.1302  37.9221   O.co2     1 RES1   0.0000
  7793 O51     41.2055   9.0476  42.3345   O.co2     1 RES1   0.0000
  7794 O52     39.0511  -0.1302  42.3345   O.co2     1 RES1   0.0000
  7795 O53     37.9221   3.3815  44.7172   O.co2     1 RES1   0.0000
  7796 O55     42.3345   5.5359  44.7172   O.co2     1 RES1   0.0000
  7797 O57     44.7172   2.2525  39.0511   O.co2     1 RES1   0.0000
  7798 O59     44.7172   6.6649  41.2055   O.co2     1 RES1   0.0000
  7799 O61     50.1229   8.7872  51.2519   O.co2     1 RES1   0.0000
  7800 O62     47.9685  17.9650  51.2519   O.co2     1 RES1   0.0000
  7801 O63     47.9685   8.7872  46.8395   O.co2     1 RES1   0.0000
  7802 O64     50.1229  17.9650  46.8395   O.co2     1 RES1   0.0000
  7803 O65     51.2519  14.4533  44.4568   O.co2     1 RES1   0.0000
  7804 O66     51.2519  12.2989  53.6346   O.co2     1 RES1   0.0000
  7805 O67     46.8395  12.2989  44.4568   O.co2     1 RES1   0.0000
  7806 O68     46.8395  14.4533  53.6346   O.co2     1 RES1   0.0000
  7807 O69     44.4568  15.5823  50.1229   O.co2     1 RES1   0.0000
  7808 O70     53.6346  15.5823  47.9685   O.co2     1 RES1   0.0000
  7809 O71     44.4568  11.1699  47.9685   O.co2     1 RES1   0.0000
  7810 O72     53.6346  11.1699  50.1229   O.co2     1 RES1   0.0000
  7811 O73     39.3935   9.3437  51.8886   O.co2     1 RES1   0.0000
  7812 O74     40.8631  17.4085  51.8886   O.co2     1 RES1   0.0000
  7813 O75     40.8631   9.3437  46.2028   O.co2     1 RES1   0.0000
  7814 O76     39.3935  17.4085  46.2028   O.co2     1 RES1   0.0000
  7815 O77     51.8886   3.7239  45.0133   O.co2     1 RES1   0.0000
  7816 O78     51.8886   5.1935  53.0781   O.co2     1 RES1   0.0000
  7817 O79     46.2028   5.1935  45.0133   O.co2     1 RES1   0.0000
  7818 O80     46.2028   3.7239  53.0781   O.co2     1 RES1   0.0000
  7819 O81     45.0133  16.2190  39.3935   O.co2     1 RES1   0.0000
  7820 O82     53.0781  16.2190  40.8631   O.co2     1 RES1   0.0000
  7821 O83     45.0133  10.5332  40.8631   O.co2     1 RES1   0.0000
  7822 O84     53.0781  10.5332  39.3935   O.co2     1 RES1   0.0000
  7823 O87     48.3109   8.4911  42.9712   O.co2     1 RES1   0.0000
  7824 O88     49.7805   0.4263  42.9712   O.co2     1 RES1   0.0000
  7825 O91     42.9712  12.6413  44.1607   O.co2     1 RES1   0.0000
  7826 O92     42.9712  14.1109  36.0959   O.co2     1 RES1   0.0000
  7827 O93     44.1607   1.6158  49.7805   O.co2     1 RES1   0.0000
  7828 O94     36.0959   1.6158  48.3109   O.co2     1 RES1   0.0000
  7829 O95     44.1607   7.3016  48.3109   O.co2     1 RES1   0.0000
  7830 O96     36.0959   7.3016  49.7805   O.co2     1 RES1   0.0000
  7831 C1      38.5303  12.2900  36.0976   C.2       1 RES1   0.0000
  7832 C2      41.7263  14.4622  36.0976   C.2       1 RES1   0.0000
  7833 C3      41.7263  12.2900  44.1590   C.2       1 RES1   0.0000
  7834 C4      38.5303  14.4622  44.1590   C.2       1 RES1   0.0000
  7835 C5      36.0976   2.8607  47.9596   C.2       1 RES1   0.0000
  7836 C6      36.0976   6.0567  50.1318   C.2       1 RES1   0.0000
  7837 C7      44.1590   6.0567  47.9596   C.2       1 RES1   0.0000
  7838 C8      44.1590   2.8607  50.1318   C.2       1 RES1   0.0000
  7839 C9      47.9596   0.4280  38.5303   C.2       1 RES1   0.0000
  7840 C10     50.1318   0.4280  41.7263   C.2       1 RES1   0.0000
  7841 C11     47.9596   8.4894  41.7263   C.2       1 RES1   0.0000
  7842 C12     50.1318   8.4894  38.5303   C.2       1 RES1   0.0000
  7843 C13     50.6437   5.5448  53.0764   C.2       1 RES1   0.0000
  7844 C14     47.4477   3.3726  53.0764   C.2       1 RES1   0.0000
  7845 C15     47.4477   5.5448  45.0150   C.2       1 RES1   0.0000
  7846 C16     50.6437   3.3726  45.0150   C.2       1 RES1   0.0000
  7847 C17     53.0764  14.9741  41.2144   C.2       1 RES1   0.0000
  7848 C18     53.0764  11.7781  39.0422   C.2       1 RES1   0.0000
  7849 C19     45.0150  11.7781  41.2144   C.2       1 RES1   0.0000
  7850 C20     45.0150  14.9741  39.0422   C.2       1 RES1   0.0000
  7851 C21     41.2144  17.4068  50.6437   C.2       1 RES1   0.0000
  7852 C22     39.0422  17.4068  47.4477   C.2       1 RES1   0.0000
  7853 C23     41.2144   9.3454  47.4477   C.2       1 RES1   0.0000
  7854 C24     39.0422   9.3454  50.6437   C.2       1 RES1   0.0000
  7855 C25     39.4898  13.4742  36.1030   C.2       1 RES1   0.0000
  7856 C26     40.7668  13.2780  36.1030   C.2       1 RES1   0.0000
  7857 C27     40.7668  13.4742  44.1536   C.2       1 RES1   0.0000
  7858 C28     39.4898  13.2780  44.1536   C.2       1 RES1   0.0000
  7859 C29     36.1030   3.8202  49.1438   C.2       1 RES1   0.0000
  7860 C30     36.1030   5.0972  48.9476   C.2       1 RES1   0.0000
  7861 C31     44.1536   5.0972  49.1438   C.2       1 RES1   0.0000
  7862 C32     44.1536   3.8202  48.9476   C.2       1 RES1   0.0000
  7863 C33     49.1438   0.4334  39.4898   C.2       1 RES1   0.0000
  7864 C34     48.9476   0.4334  40.7668   C.2       1 RES1   0.0000
  7865 C35     49.1438   8.4840  40.7668   C.2       1 RES1   0.0000
  7866 C36     48.9476   8.4840  39.4898   C.2       1 RES1   0.0000
  7867 C37     49.6842   4.3606  53.0710   C.2       1 RES1   0.0000
  7868 C38     48.4072   4.5568  53.0710   C.2       1 RES1   0.0000
  7869 C39     48.4072   4.3606  45.0204   C.2       1 RES1   0.0000
  7870 C40     49.6842   4.5568  45.0204   C.2       1 RES1   0.0000
  7871 C41     53.0710  14.0146  40.0302   C.2       1 RES1   0.0000
  7872 C42     53.0710  12.7376  40.2264   C.2       1 RES1   0.0000
  7873 C43     45.0204  12.7376  40.0302   C.2       1 RES1   0.0000
  7874 C44     45.0204  14.0146  40.2264   C.2       1 RES1   0.0000
  7875 C45     40.0302  17.4014  49.6842   C.2       1 RES1   0.0000
  7876 C46     40.2264  17.4014  48.4072   C.2       1 RES1   0.0000
  7877 C47     40.0302   9.3508  48.4072   C.2       1 RES1   0.0000
  7878 C48     40.2264   9.3508  49.6842   C.2       1 RES1   0.0000
  7879 H1      39.1563  14.3427  36.1048   H         1 RES1   0.0000
  7880 H2      41.1003  12.4095  36.1048   H         1 RES1   0.0000
  7881 H3      41.1003  14.3427  44.1518   H         1 RES1   0.0000
  7882 H4      39.1563  12.4095  44.1518   H         1 RES1   0.0000
  7883 H5      36.1048   3.4867  50.0123   H         1 RES1   0.0000
  7884 H6      36.1048   5.4307  48.0791   H         1 RES1   0.0000
  7885 H7      44.1518   5.4307  50.0123   H         1 RES1   0.0000
  7886 H8      44.1518   3.4867  48.0791   H         1 RES1   0.0000
  7887 H9      50.0123   0.4352  39.1563   H         1 RES1   0.0000
  7888 H10     48.0791   0.4352  41.1003   H         1 RES1   0.0000
  7889 H11     50.0123   8.4822  41.1003   H         1 RES1   0.0000
  7890 H12     48.0791   8.4822  39.1563   H         1 RES1   0.0000
  7891 H13     50.0177   3.4921  53.0692   H         1 RES1   0.0000
  7892 H14     48.0737   5.4253  53.0692   H         1 RES1   0.0000
  7893 H15     48.0737   3.4921  45.0222   H         1 RES1   0.0000
  7894 H16     50.0177   5.4253  45.0222   H         1 RES1   0.0000
  7895 H17     53.0692  14.3481  39.1617   H         1 RES1   0.0000
  7896 H18     53.0692  12.4041  41.0949   H         1 RES1   0.0000
  7897 H19     45.0222  12.4041  39.1617   H         1 RES1   0.0000
  7898 H20     45.0222  14.3481  41.0949   H         1 RES1   0.0000
  7899 H21     39.1617  17.3996  50.0177   H         1 RES1   0.0000
  7900 H22     41.0949  17.3996  48.0737   H         1 RES1   0.0000
  7901 H23     39.1617   9.3526  48.0737   H         1 RES1   0.0000
  7902 H24     41.0949   9.3526  50.0177   H         1 RES1   0.0000
  7903 C49     39.0689   6.0603  35.6696   C.2       1 RES1   0.0000
  7904 C50     41.1877   2.8571  35.6696   C.2       1 RES1   0.0000
  7905 C51     41.1877   6.0603  44.5870   C.2       1 RES1   0.0000
  7906 C52     39.0689   2.8571  44.5870   C.2       1 RES1   0.0000
  7907 C53     35.6696   3.3993  41.7299   C.2       1 RES1   0.0000
  7908 C54     35.6696   5.5181  38.5267   C.2       1 RES1   0.0000
  7909 C55     44.5870   5.5181  41.7299   C.2       1 RES1   0.0000
  7910 C56     44.5870   3.3993  38.5267   C.2       1 RES1   0.0000
  7911 C57     41.7299   0.0000  39.0689   C.2       1 RES1   0.0000
  7912 C58     38.5267   0.0000  41.1877   C.2       1 RES1   0.0000
  7913 C59     41.7299   8.9174  41.1877   C.2       1 RES1   0.0000
  7914 C60     38.5267   8.9174  39.0689   C.2       1 RES1   0.0000
  7915 C61     50.1051  11.7745  53.5044   C.2       1 RES1   0.0000
  7916 C62     47.9863  14.9777  53.5044   C.2       1 RES1   0.0000
  7917 C63     47.9863  11.7745  44.5870   C.2       1 RES1   0.0000
  7918 C64     50.1051  14.9777  44.5870   C.2       1 RES1   0.0000
  7919 C65     53.5044  14.4355  47.4441   C.2       1 RES1   0.0000
  7920 C66     53.5044  12.3167  50.6473   C.2       1 RES1   0.0000
  7921 C67     44.5870  12.3167  47.4441   C.2       1 RES1   0.0000
  7922 C68     44.5870  14.4355  50.6473   C.2       1 RES1   0.0000
  7923 C69     47.4441  17.8348  50.1051   C.2       1 RES1   0.0000
  7924 C70     50.6473  17.8348  47.9863   C.2       1 RES1   0.0000
  7925 C71     47.4441   8.9174  47.9863   C.2       1 RES1   0.0000
  7926 C72     50.6473   8.9174  50.1051   C.2       1 RES1   0.0000
  7927 C73     40.2478   5.1097  35.6714   C.2       1 RES1   0.0000
  7928 C74     40.0088   3.8077  35.6714   C.2       1 RES1   0.0000
  7929 C75     40.0088   5.1097  44.5852   C.2       1 RES1   0.0000
  7930 C76     40.2478   3.8077  44.5852   C.2       1 RES1   0.0000
  7931 C77     35.6714   4.5782  40.7793   C.2       1 RES1   0.0000
  7932 C78     35.6714   4.3392  39.4773   C.2       1 RES1   0.0000
  7933 C79     44.5852   4.3392  40.7793   C.2       1 RES1   0.0000
  7934 C80     44.5852   4.5782  39.4773   C.2       1 RES1   0.0000
  7935 C81     40.7793   0.0018  40.2478   C.2       1 RES1   0.0000
  7936 C82     39.4773   0.0018  40.0088   C.2       1 RES1   0.0000
  7937 C83     40.7793   8.9156  40.0088   C.2       1 RES1   0.0000
  7938 C84     39.4773   8.9156  40.2478   C.2       1 RES1   0.0000
  7939 C85     48.9262  12.7251  53.5026   C.2       1 RES1   0.0000
  7940 C86     49.1652  14.0271  53.5026   C.2       1 RES1   0.0000
  7941 C87     49.1652  12.7251  44.5888   C.2       1 RES1   0.0000
  7942 C88     48.9262  14.0271  44.5888   C.2       1 RES1   0.0000
  7943 C89     53.5026  13.2566  48.3947   C.2       1 RES1   0.0000
  7944 C90     53.5026  13.4956  49.6967   C.2       1 RES1   0.0000
  7945 C91     44.5888  13.4956  48.3947   C.2       1 RES1   0.0000
  7946 C92     44.5888  13.2566  49.6967   C.2       1 RES1   0.0000
  7947 C93     48.3947  17.8330  48.9262   C.2       1 RES1   0.0000
  7948 C94     49.6967  17.8330  49.1652   C.2       1 RES1   0.0000
  7949 C95     48.3947   8.9192  49.1652   C.2       1 RES1   0.0000
  7950 C96     49.6967   8.9192  48.9262   C.2       1 RES1   0.0000
  7951 H25     41.1199   5.4325  35.6714   H         1 RES1   0.0000
  7952 H26     39.1367   3.4849  35.6714   H         1 RES1   0.0000
  7953 H27     39.1367   5.4325  44.5852   H         1 RES1   0.0000
  7954 H28     41.1199   3.4849  44.5852   H         1 RES1   0.0000
  7955 H29     35.6714   5.4503  41.1021   H         1 RES1   0.0000
  7956 H30     35.6714   3.4671  39.1545   H         1 RES1   0.0000
  7957 H31     44.5852   3.4671  41.1021   H         1 RES1   0.0000
  7958 H32     44.5852   5.4503  39.1545   H         1 RES1   0.0000
  7959 H33     41.1021   0.0018  41.1199   H         1 RES1   0.0000
  7960 H34     39.1545   0.0018  39.1367   H         1 RES1   0.0000
  7961 H35     41.1021   8.9156  39.1367   H         1 RES1   0.0000
  7962 H36     39.1545   8.9156  41.1199   H         1 RES1   0.0000
  7963 H37     48.0541  12.4023  53.5026   H         1 RES1   0.0000
  7964 H38     50.0373  14.3499  53.5026   H         1 RES1   0.0000
  7965 H39     50.0373  12.4023  44.5888   H         1 RES1   0.0000
  7966 H40     48.0541  14.3499  44.5888   H         1 RES1   0.0000
  7967 H41     53.5026  12.3845  48.0719   H         1 RES1   0.0000
  7968 H42     53.5026  14.3677  50.0195   H         1 RES1   0.0000
  7969 H43     44.5888  14.3677  48.0719   H         1 RES1   0.0000
  7970 H44     44.5888  12.3845  50.0195   H         1 RES1   0.0000
  7971 H45     48.0719  17.8330  48.0541   H         1 RES1   0.0000
  7972 H46     50.0195  17.8330  50.0373   H         1 RES1   0.0000
  7973 H47     48.0719   8.9192  50.0373   H         1 RES1   0.0000
  7974 H48     50.0195   8.9192  48.0541   H         1 RES1   0.0000
  7975 O97     37.0340  10.5529  52.3505   O.3       1 RES1   0.0000
  7976 O98     43.2226  16.1993  52.3505   O.3       1 RES1   0.0000
  7977 O99     43.2226  10.5529  45.7409   O.3       1 RES1   0.0000
  7978 O101    52.3505   1.3644  46.2225   O.3       1 RES1   0.0000
  7979 O102    52.3505   7.5530  51.8689   O.3       1 RES1   0.0000
  7980 O103    45.7409   7.5530  46.2225   O.3       1 RES1   0.0000
  7981 O104    45.7409   1.3644  51.8689   O.3       1 RES1   0.0000
  7982 O105    46.2225  16.6809  37.0340   O.3       1 RES1   0.0000
  7983 O106    51.8689  16.6809  43.2226   O.3       1 RES1   0.0000
  7984 O107    46.2225  10.0713  43.2226   O.3       1 RES1   0.0000
  7985 O111    45.9514   7.2819  43.4331   O.3       1 RES1   0.0000
  7986 O112    52.1400   1.6355  43.4331   O.3       1 RES1   0.0000
  7987 O115    43.4331  10.2818  42.9515   O.3       1 RES1   0.0000
  7988 O116    43.4331  16.4704  37.3051   O.3       1 RES1   0.0000
  7989 O117    42.9515   1.1539  52.1400   O.3       1 RES1   0.0000
  7990 O118    37.3051   1.1539  45.9514   O.3       1 RES1   0.0000
  7991 O119    42.9515   7.7635  45.9514   O.3       1 RES1   0.0000
  7992 O120    37.3051   7.7635  52.1400   O.3       1 RES1   0.0000
  7993 O123    43.5240   7.8544  43.5240   O.3       1 RES1   0.0000
  7994 O125    52.4414   9.9804  52.4414   O.3       1 RES1   0.0000
  7995 O126    45.6500  16.7718  52.4414   O.3       1 RES1   0.0000
  7996 O127    45.6500   9.9804  45.6500   O.3       1 RES1   0.0000
  7997 O128    52.4414  16.7718  45.6500   O.3       1 RES1   0.0000
  7998 O129    36.7326  10.1409  52.6198   O.3       1 RES1   0.0000
  7999 O130    43.5240  16.6113  52.6198   O.3       1 RES1   0.0000
  8000 O131    43.5240  10.1409  45.4716   O.3       1 RES1   0.0000
  8001 O133    52.6198   1.0630  45.8105   O.3       1 RES1   0.0000
  8002 O134    52.6198   7.8544  52.2809   O.3       1 RES1   0.0000
  8003 O135    45.4716   7.8544  45.8105   O.3       1 RES1   0.0000
  8004 O136    45.4716   1.0630  52.2809   O.3       1 RES1   0.0000
  8005 O137    45.8105  16.9502  36.7326   O.3       1 RES1   0.0000
  8006 O138    52.2809  16.9502  43.5240   O.3       1 RES1   0.0000
  8007 O139    45.8105   9.8020  43.5240   O.3       1 RES1   0.0000
  8008 O143    45.6500   7.6939  43.7024   O.3       1 RES1   0.0000
  8009 O144    52.4414   1.2235  43.7024   O.3       1 RES1   0.0000
  8010 O147    43.7024   9.9804  43.3635   O.3       1 RES1   0.0000
  8011 O148    43.7024  16.7718  36.8931   O.3       1 RES1   0.0000
  8012 O149    43.3635   0.8846  52.4414   O.3       1 RES1   0.0000
  8013 O150    36.8931   0.8846  45.6500   O.3       1 RES1   0.0000
  8014 O151    43.3635   8.0328  45.6500   O.3       1 RES1   0.0000
  8015 O152    36.8931   8.0328  52.4414   O.3       1 RES1   0.0000
  8016 O155    43.1870   7.5174  43.1870   O.3       1 RES1   0.0000
  8017 O157    52.1044  10.3174  52.1044   O.3       1 RES1   0.0000
  8018 O158    45.9870  16.4348  52.1044   O.3       1 RES1   0.0000
  8019 O159    45.9870  10.3174  45.9870   O.3       1 RES1   0.0000
  8020 O160    52.1044  16.4348  45.9870   O.3       1 RES1   0.0000
  8021 Zr1     38.1281   9.1159  53.7163   Zr        1 RES1   0.0000
  8022 Zr1     55.9629   9.1159  35.8815   Zr        1 RES1   0.0000
  8023 Zr2     42.1285  -0.1985  53.7163   Zr        1 RES1   0.0000
  8024 Zr2     42.1285  17.6363  53.7163   Zr        1 RES1   0.0000
  8025 Zr4     55.9629  -0.1985  44.3751   Zr        1 RES1   0.0000
  8026 Zr4     55.9629  17.6363  44.3751   Zr        1 RES1   0.0000
  8027 Zr5     53.7163   2.4585  44.7855   Zr        1 RES1   0.0000
  8028 Zr6     53.7163   6.4589  53.3059   Zr        1 RES1   0.0000
  8029 Zr8     44.3751  20.2933  53.3059   Zr        1 RES1   0.0000
  8030 Zr9     44.7855   0.2119  55.9629   Zr        1 RES1   0.0000
  8031 Zr9     44.7855  18.0467  38.1281   Zr        1 RES1   0.0000
  8032 Zr10    53.3059  18.0467  42.1285   Zr        1 RES1   0.0000
  8033 Zr12    53.3059   8.7055  55.9629   Zr        1 RES1   0.0000
  8034 Zr14    47.0455  18.0333  53.2925   Zr        1 RES1   0.0000
  8035 Zr16    51.0459  18.0333  44.7989   Zr        1 RES1   0.0000
  8036 Zr17    53.2925  -2.4585  44.3885   Zr        1 RES1   0.0000
  8037 Zr18    53.2925  11.3759  53.7029   Zr        1 RES1   0.0000
  8038 Zr20    44.7989  -2.4585  53.7029   Zr        1 RES1   0.0000
  8039 Zr20    44.7989  15.3763  53.7029   Zr        1 RES1   0.0000
  8040 Zr21    44.3885  -0.2119  51.0459   Zr        1 RES1   0.0000
  8041 Zr22    53.7029  -0.2119  47.0455   Zr        1 RES1   0.0000
  8042 Zr22    53.7029  17.6229  47.0455   Zr        1 RES1   0.0000
  8043 Zr24    53.7029   9.1293  51.0459   Zr        1 RES1   0.0000
  8044 O2      40.8595  19.4667  35.8123   O.co2     1 RES1   0.0000
  8045 O4      39.3971  19.4667  44.4443   O.co2     1 RES1   0.0000
  8046 O6      35.8123   5.1899  55.1363   O.2       1 RES1   0.0000
  8047 O8      44.4443   3.7275  55.1363   O.2       1 RES1   0.0000
  8048 O10     55.1363   0.1427  40.8595   O.2       1 RES1   0.0000
  8049 O12     55.1363   8.7747  39.3971   O.2       1 RES1   0.0000
  8050 O14     48.3145  -1.6319  53.3617   O.2       1 RES1   0.0000
  8051 O16     49.7769  -1.6319  44.7297   O.2       1 RES1   0.0000
  8052 O50     41.2055  17.7046  37.9221   O.co2     1 RES1   0.0000
  8053 O52     39.0511  17.7046  42.3345   O.co2     1 RES1   0.0000
  8054 O54     37.9221   5.5359  53.3742   O.2       1 RES1   0.0000
  8055 O56     42.3345   3.3815  53.3742   O.2       1 RES1   0.0000
  8056 O58     53.3742   2.2525  41.2055   O.2       1 RES1   0.0000
  8057 O60     53.3742   6.6649  39.0511   O.2       1 RES1   0.0000
  8058 O62     47.9685   0.1302  51.2519   O.2       1 RES1   0.0000
  8059 O64     50.1229   0.1302  46.8395   O.2       1 RES1   0.0000
  8060 O81     45.0133  -1.6158  39.3935   O.2       1 RES1   0.0000
  8061 O82     53.0781  -1.6158  40.8631   O.2       1 RES1   0.0000
  8062 O85     49.7805   8.4911  55.1202   O.2       1 RES1   0.0000
  8063 O86     48.3109   0.4263  55.1202   O.2       1 RES1   0.0000
  8064 O89     55.1202  14.1109  44.1607   O.2       1 RES1   0.0000
  8065 O90     55.1202  12.6413  36.0959   O.2       1 RES1   0.0000
  8066 O93     44.1607  19.4506  49.7805   O.co2     1 RES1   0.0000
  8067 O94     36.0959  19.4506  48.3109   O.co2     1 RES1   0.0000
  8068 O97     54.8688  10.5529  34.5157   O.3       1 RES1   0.0000
  8069 O100    54.8688  16.1993  45.7409   O.3       1 RES1   0.0000
  8070 O104    45.7409  19.1992  51.8689   O.3       1 RES1   0.0000
  8071 O105    46.2225  -1.1539  54.8688   O.3       1 RES1   0.0000
  8072 O106    51.8689  -1.1539  43.2226   O.3       1 RES1   0.0000
  8073 O108    51.8689  10.0713  54.8688   O.3       1 RES1   0.0000
  8074 O109    52.1400   7.2819  54.6583   O.3       1 RES1   0.0000
  8075 O110    45.9514   1.6355  54.6583   O.3       1 RES1   0.0000
  8076 O113    54.6583  -1.3644  42.9515   O.3       1 RES1   0.0000
  8077 O113    54.6583  16.4704  42.9515   O.3       1 RES1   0.0000
  8078 O114    54.6583  10.2818  37.3051   O.3       1 RES1   0.0000
  8079 O116    43.4331  -1.3644  37.3051   O.3       1 RES1   0.0000
  8080 O117    42.9515  18.9887  52.1400   O.3       1 RES1   0.0000
  8081 O118    37.3051  18.9887  45.9514   O.3       1 RES1   0.0000
  8082 O121    36.7326   7.8544  54.5674   O.3       1 RES1   0.0000
  8083 O121    54.5674   7.8544  36.7326   O.3       1 RES1   0.0000
  8084 O122    43.5240   1.0630  54.5674   O.3       1 RES1   0.0000
  8085 O122    43.5240  18.8978  36.7326   O.3       1 RES1   0.0000
  8086 O124    54.5674   1.0630  43.5240   O.3       1 RES1   0.0000
  8087 O126    45.6500  -1.0630  52.4414   O.3       1 RES1   0.0000
  8088 O128    52.4414  -1.0630  45.6500   O.3       1 RES1   0.0000
  8089 O129    54.5674  10.1409  34.7850   O.3       1 RES1   0.0000
  8090 O132    54.5674  16.6113  45.4716   O.3       1 RES1   0.0000
  8091 O136    45.4716  18.8978  52.2809   O.3       1 RES1   0.0000
  8092 O137    45.8105  -0.8846  54.5674   O.3       1 RES1   0.0000
  8093 O138    52.2809  -0.8846  43.5240   O.3       1 RES1   0.0000
  8094 O140    52.2809   9.8020  54.5674   O.3       1 RES1   0.0000
  8095 O141    52.4414   7.6939  54.3890   O.3       1 RES1   0.0000
  8096 O142    45.6500   1.2235  54.3890   O.3       1 RES1   0.0000
  8097 O145    54.3890  -1.0630  43.3635   O.3       1 RES1   0.0000
  8098 O145    54.3890  16.7718  43.3635   O.3       1 RES1   0.0000
  8099 O146    54.3890   9.9804  36.8931   O.3       1 RES1   0.0000
  8100 O148    43.7024  -1.0630  36.8931   O.3       1 RES1   0.0000
  8101 O149    43.3635  18.7194  52.4414   O.3       1 RES1   0.0000
  8102 O150    36.8931  18.7194  45.6500   O.3       1 RES1   0.0000
  8103 O153    37.0696   7.5174  54.9044   O.3       1 RES1   0.0000
  8104 O153    54.9044   7.5174  37.0696   O.3       1 RES1   0.0000
  8105 O154    43.1870   1.4000  54.9044   O.3       1 RES1   0.0000
  8106 O154    43.1870  19.2348  37.0696   O.3       1 RES1   0.0000
  8107 O156    54.9044   1.4000  43.1870   O.3       1 RES1   0.0000
  8108 O158    45.9870  -1.4000  52.1044   O.3       1 RES1   0.0000
  8109 O160    52.1044  -1.4000  45.9870   O.3       1 RES1   0.0000
  8110 Zr2     42.1285  35.4711   0.2119   Zr        1 RES1   0.0000
  8111 Zr3     42.1285  26.9507   8.7055   Zr        1 RES1   0.0000
  8112 Zr7     44.3751  24.2937   9.1159   Zr        1 RES1   0.0000
  8113 Zr11    44.7855  26.5403   6.4589   Zr        1 RES1   0.0000
  8114 Zr12    53.3059  26.5403   2.4585   Zr        1 RES1   0.0000
  8115 Zr13    51.0459  26.5537  17.6229   Zr        1 RES1   0.0000
  8116 Zr15    47.0455  26.5537   9.1293   Zr        1 RES1   0.0000
  8117 Zr17    53.2925  33.2111   8.7189   Zr        1 RES1   0.0000
  8118 Zr18    53.2925  29.2107   0.1985   Zr        1 RES1   0.0000
  8119 Zr19    44.7989  29.2107   8.7189   Zr        1 RES1   0.0000
  8120 Zr20    44.7989  33.2111   0.1985   Zr        1 RES1   0.0000
  8121 Zr21    44.3885  35.4577  15.3763   Zr        1 RES1   0.0000
  8122 Zr23    44.3885  26.9641  11.3759   Zr        1 RES1   0.0000
  8123 O1      39.3971  25.1203   0.1427   O.co2     1 RES1   0.0000
  8124 O3      40.8595  25.1203   8.7747   O.co2     1 RES1   0.0000
  8125 O5      35.8123  21.5623   7.2855   O.co2     1 RES1   0.0000
  8126 O6      35.8123  23.0247   1.6319   O.co2     1 RES1   0.0000
  8127 O7      44.4443  23.0247   7.2855   O.co2     1 RES1   0.0000
  8128 O8      44.4443  21.5623   1.6319   O.co2     1 RES1   0.0000
  8129 O9      42.9551  17.9775   3.7275   O.co2     1 RES1   0.0000
  8130 O11     42.9551  26.6095   5.1899   O.co2     1 RES1   0.0000
  8131 O13     49.7769  28.3841  17.6921   O.co2     1 RES1   0.0000
  8132 O14     48.3145  34.0377  17.6921   O.co2     1 RES1   0.0000
  8133 O15     48.3145  28.3841   9.0601   O.co2     1 RES1   0.0000
  8134 O16     49.7769  34.0377   9.0601   O.co2     1 RES1   0.0000
  8135 O17     53.3617  31.9421  10.5493   O.co2     1 RES1   0.0000
  8136 O18     53.3617  30.4797  16.2029   O.co2     1 RES1   0.0000
  8137 O19     44.7297  30.4797  10.5493   O.co2     1 RES1   0.0000
  8138 O20     44.7297  31.9421  16.2029   O.co2     1 RES1   0.0000
  8139 O21     46.2189  35.5269  14.1073   O.co2     1 RES1   0.0000
  8140 O22     51.8725  35.5269  12.6449   O.co2     1 RES1   0.0000
  8141 O23     46.2189  26.8949  12.6449   O.co2     1 RES1   0.0000
  8142 O24     51.8725  26.8949  14.1073   O.co2     1 RES1   0.0000
  8143 O25     39.0653  28.9744   0.4387   O.co2     1 RES1   0.0000
  8144 O26     41.1913  33.4474   0.4387   O.co2     1 RES1   0.0000
  8145 O27     41.1913  28.9744   8.4787   O.co2     1 RES1   0.0000
  8146 O28     39.0653  33.4474   8.4787   O.co2     1 RES1   0.0000
  8147 O29     36.1083  21.2305  11.1396   O.co2     1 RES1   0.0000
  8148 O30     36.1083  23.3565  15.6126   O.co2     1 RES1   0.0000
  8149 O31     44.1483  23.3565  11.1396   O.co2     1 RES1   0.0000
  8150 O32     44.1483  21.2305  15.6126   O.co2     1 RES1   0.0000
  8151 O33     46.8092  18.2735   3.3957   O.co2     1 RES1   0.0000
  8152 O34     51.2822  18.2735   5.5217   O.co2     1 RES1   0.0000
  8153 O35     46.8092  26.3135   5.5217   O.co2     1 RES1   0.0000
  8154 O36     51.2822  26.3135   3.3957   O.co2     1 RES1   0.0000
  8155 O37     50.1087  24.5300  17.3961   O.co2     1 RES1   0.0000
  8156 O38     47.9827  20.0570  17.3961   O.co2     1 RES1   0.0000
  8157 O39     47.9827  24.5300   9.3561   O.co2     1 RES1   0.0000
  8158 O40     50.1087  20.0570   9.3561   O.co2     1 RES1   0.0000
  8159 O41     53.0657  32.2739   6.6952   O.co2     1 RES1   0.0000
  8160 O42     53.0657  30.1479   2.2222   O.co2     1 RES1   0.0000
  8161 O43     45.0257  30.1479   6.6952   O.co2     1 RES1   0.0000
  8162 O44     45.0257  32.2739   2.2222   O.co2     1 RES1   0.0000
  8163 O45     42.3648  35.2309  14.4391   O.co2     1 RES1   0.0000
  8164 O46     37.8918  35.2309  12.3131   O.co2     1 RES1   0.0000
  8165 O47     42.3648  27.1909  12.3131   O.co2     1 RES1   0.0000
  8166 O48     37.8918  27.1909  14.4391   O.co2     1 RES1   0.0000
  8167 O49     39.0511  26.8824   2.2525   O.co2     1 RES1   0.0000
  8168 O51     41.2055  26.8824   6.6649   O.co2     1 RES1   0.0000
  8169 O53     37.9221  21.2163   9.0476   O.co2     1 RES1   0.0000
  8170 O54     37.9221  23.3707  -0.1302   O.co2     1 RES1   0.0000
  8171 O55     42.3345  23.3707   9.0476   O.co2     1 RES1   0.0000
  8172 O56     42.3345  21.2163  -0.1302   O.co2     1 RES1   0.0000
  8173 O57     44.7172  20.0873   3.3815   O.co2     1 RES1   0.0000
  8174 O59     44.7172  24.4997   5.5359   O.co2     1 RES1   0.0000
  8175 O61     50.1229  26.6220  15.5823   O.co2     1 RES1   0.0000
  8176 O62     47.9685  35.7998  15.5823   O.co2     1 RES1   0.0000
  8177 O63     47.9685  26.6220  11.1699   O.co2     1 RES1   0.0000
  8178 O64     50.1229  35.7998  11.1699   O.co2     1 RES1   0.0000
  8179 O65     51.2519  32.2881   8.7872   O.co2     1 RES1   0.0000
  8180 O66     51.2519  30.1337  17.9650   O.co2     1 RES1   0.0000
  8181 O67     46.8395  30.1337   8.7872   O.co2     1 RES1   0.0000
  8182 O68     46.8395  32.2881  17.9650   O.co2     1 RES1   0.0000
  8183 O69     44.4568  33.4171  14.4533   O.co2     1 RES1   0.0000
  8184 O70     53.6346  33.4171  12.2989   O.co2     1 RES1   0.0000
  8185 O71     44.4568  29.0047  12.2989   O.co2     1 RES1   0.0000
  8186 O72     53.6346  29.0047  14.4533   O.co2     1 RES1   0.0000
  8187 O73     39.3935  27.1785  16.2190   O.co2     1 RES1   0.0000
  8188 O74     40.8631  35.2433  16.2190   O.co2     1 RES1   0.0000
  8189 O75     40.8631  27.1785  10.5332   O.co2     1 RES1   0.0000
  8190 O76     39.3935  35.2433  10.5332   O.co2     1 RES1   0.0000
  8191 O77     51.8886  21.5587   9.3437   O.co2     1 RES1   0.0000
  8192 O78     51.8886  23.0283  17.4085   O.co2     1 RES1   0.0000
  8193 O79     46.2028  23.0283   9.3437   O.co2     1 RES1   0.0000
  8194 O80     46.2028  21.5587  17.4085   O.co2     1 RES1   0.0000
  8195 O81     45.0133  34.0538   3.7239   O.co2     1 RES1   0.0000
  8196 O82     53.0781  34.0538   5.1935   O.co2     1 RES1   0.0000
  8197 O83     45.0133  28.3680   5.1935   O.co2     1 RES1   0.0000
  8198 O84     53.0781  28.3680   3.7239   O.co2     1 RES1   0.0000
  8199 O85     49.7805  26.3259   1.6158   O.co2     1 RES1   0.0000
  8200 O86     48.3109  18.2611   1.6158   O.co2     1 RES1   0.0000
  8201 O87     48.3109  26.3259   7.3016   O.co2     1 RES1   0.0000
  8202 O88     49.7805  18.2611   7.3016   O.co2     1 RES1   0.0000
  8203 O91     42.9712  30.4761   8.4911   O.co2     1 RES1   0.0000
  8204 O92     42.9712  31.9457   0.4263   O.co2     1 RES1   0.0000
  8205 O95     44.1607  25.1364  12.6413   O.co2     1 RES1   0.0000
  8206 O96     36.0959  25.1364  14.1109   O.co2     1 RES1   0.0000
  8207 C1      38.5303  30.1248   0.4280   C.2       1 RES1   0.0000
  8208 C2      41.7263  32.2970   0.4280   C.2       1 RES1   0.0000
  8209 C3      41.7263  30.1248   8.4894   C.2       1 RES1   0.0000
  8210 C4      38.5303  32.2970   8.4894   C.2       1 RES1   0.0000
  8211 C5      36.0976  20.6955  12.2900   C.2       1 RES1   0.0000
  8212 C6      36.0976  23.8915  14.4622   C.2       1 RES1   0.0000
  8213 C7      44.1590  23.8915  12.2900   C.2       1 RES1   0.0000
  8214 C8      44.1590  20.6955  14.4622   C.2       1 RES1   0.0000
  8215 C9      47.9596  18.2628   2.8607   C.2       1 RES1   0.0000
  8216 C10     50.1318  18.2628   6.0567   C.2       1 RES1   0.0000
  8217 C11     47.9596  26.3242   6.0567   C.2       1 RES1   0.0000
  8218 C12     50.1318  26.3242   2.8607   C.2       1 RES1   0.0000
  8219 C13     50.6437  23.3796  17.4068   C.2       1 RES1   0.0000
  8220 C14     47.4477  21.2074  17.4068   C.2       1 RES1   0.0000
  8221 C15     47.4477  23.3796   9.3454   C.2       1 RES1   0.0000
  8222 C16     50.6437  21.2074   9.3454   C.2       1 RES1   0.0000
  8223 C17     53.0764  32.8089   5.5448   C.2       1 RES1   0.0000
  8224 C18     53.0764  29.6129   3.3726   C.2       1 RES1   0.0000
  8225 C19     45.0150  29.6129   5.5448   C.2       1 RES1   0.0000
  8226 C20     45.0150  32.8089   3.3726   C.2       1 RES1   0.0000
  8227 C21     41.2144  35.2416  14.9741   C.2       1 RES1   0.0000
  8228 C22     39.0422  35.2416  11.7781   C.2       1 RES1   0.0000
  8229 C23     41.2144  27.1802  11.7781   C.2       1 RES1   0.0000
  8230 C24     39.0422  27.1802  14.9741   C.2       1 RES1   0.0000
  8231 C25     39.4898  31.3090   0.4334   C.2       1 RES1   0.0000
  8232 C26     40.7668  31.1128   0.4334   C.2       1 RES1   0.0000
  8233 C27     40.7668  31.3090   8.4840   C.2       1 RES1   0.0000
  8234 C28     39.4898  31.1128   8.4840   C.2       1 RES1   0.0000
  8235 C29     36.1030  21.6550  13.4742   C.2       1 RES1   0.0000
  8236 C30     36.1030  22.9320  13.2780   C.2       1 RES1   0.0000
  8237 C31     44.1536  22.9320  13.4742   C.2       1 RES1   0.0000
  8238 C32     44.1536  21.6550  13.2780   C.2       1 RES1   0.0000
  8239 C33     49.1438  18.2682   3.8202   C.2       1 RES1   0.0000
  8240 C34     48.9476  18.2682   5.0972   C.2       1 RES1   0.0000
  8241 C35     49.1438  26.3188   5.0972   C.2       1 RES1   0.0000
  8242 C36     48.9476  26.3188   3.8202   C.2       1 RES1   0.0000
  8243 C37     49.6842  22.1954  17.4014   C.2       1 RES1   0.0000
  8244 C38     48.4072  22.3916  17.4014   C.2       1 RES1   0.0000
  8245 C39     48.4072  22.1954   9.3508   C.2       1 RES1   0.0000
  8246 C40     49.6842  22.3916   9.3508   C.2       1 RES1   0.0000
  8247 C41     53.0710  31.8494   4.3606   C.2       1 RES1   0.0000
  8248 C42     53.0710  30.5724   4.5568   C.2       1 RES1   0.0000
  8249 C43     45.0204  30.5724   4.3606   C.2       1 RES1   0.0000
  8250 C44     45.0204  31.8494   4.5568   C.2       1 RES1   0.0000
  8251 C45     40.0302  35.2362  14.0146   C.2       1 RES1   0.0000
  8252 C46     40.2264  35.2362  12.7376   C.2       1 RES1   0.0000
  8253 C47     40.0302  27.1856  12.7376   C.2       1 RES1   0.0000
  8254 C48     40.2264  27.1856  14.0146   C.2       1 RES1   0.0000
  8255 H1      39.1563  32.1775   0.4352   H         1 RES1   0.0000
  8256 H2      41.1003  30.2443   0.4352   H         1 RES1   0.0000
  8257 H3      41.1003  32.1775   8.4822   H         1 RES1   0.0000
  8258 H4      39.1563  30.2443   8.4822   H         1 RES1   0.0000
  8259 H5      36.1048  21.3215  14.3427   H         1 RES1   0.0000
  8260 H6      36.1048  23.2655  12.4095   H         1 RES1   0.0000
  8261 H7      44.1518  23.2655  14.3427   H         1 RES1   0.0000
  8262 H8      44.1518  21.3215  12.4095   H         1 RES1   0.0000
  8263 H9      50.0123  18.2700   3.4867   H         1 RES1   0.0000
  8264 H10     48.0791  18.2700   5.4307   H         1 RES1   0.0000
  8265 H11     50.0123  26.3170   5.4307   H         1 RES1   0.0000
  8266 H12     48.0791  26.3170   3.4867   H         1 RES1   0.0000
  8267 H13     50.0177  21.3269  17.3996   H         1 RES1   0.0000
  8268 H14     48.0737  23.2601  17.3996   H         1 RES1   0.0000
  8269 H15     48.0737  21.3269   9.3526   H         1 RES1   0.0000
  8270 H16     50.0177  23.2601   9.3526   H         1 RES1   0.0000
  8271 H17     53.0692  32.1829   3.4921   H         1 RES1   0.0000
  8272 H18     53.0692  30.2389   5.4253   H         1 RES1   0.0000
  8273 H19     45.0222  30.2389   3.4921   H         1 RES1   0.0000
  8274 H20     45.0222  32.1829   5.4253   H         1 RES1   0.0000
  8275 H21     39.1617  35.2344  14.3481   H         1 RES1   0.0000
  8276 H22     41.0949  35.2344  12.4041   H         1 RES1   0.0000
  8277 H23     39.1617  27.1874  12.4041   H         1 RES1   0.0000
  8278 H24     41.0949  27.1874  14.3481   H         1 RES1   0.0000
  8279 C49     39.0689  23.8951   0.0000   C.2       1 RES1   0.0000
  8280 C50     41.1877  20.6919   0.0000   C.2       1 RES1   0.0000
  8281 C51     41.1877  23.8951   8.9174   C.2       1 RES1   0.0000
  8282 C52     39.0689  20.6919   8.9174   C.2       1 RES1   0.0000
  8283 C53     35.6696  21.2341   6.0603   C.2       1 RES1   0.0000
  8284 C54     35.6696  23.3529   2.8571   C.2       1 RES1   0.0000
  8285 C55     44.5870  23.3529   6.0603   C.2       1 RES1   0.0000
  8286 C56     44.5870  21.2341   2.8571   C.2       1 RES1   0.0000
  8287 C57     41.7299  17.8348   3.3993   C.2       1 RES1   0.0000
  8288 C58     38.5267  17.8348   5.5181   C.2       1 RES1   0.0000
  8289 C59     41.7299  26.7522   5.5181   C.2       1 RES1   0.0000
  8290 C60     38.5267  26.7522   3.3993   C.2       1 RES1   0.0000
  8291 C61     50.1051  29.6093  17.8348   C.2       1 RES1   0.0000
  8292 C62     47.9863  32.8125  17.8348   C.2       1 RES1   0.0000
  8293 C63     47.9863  29.6093   8.9174   C.2       1 RES1   0.0000
  8294 C64     50.1051  32.8125   8.9174   C.2       1 RES1   0.0000
  8295 C65     53.5044  32.2703  11.7745   C.2       1 RES1   0.0000
  8296 C66     53.5044  30.1515  14.9777   C.2       1 RES1   0.0000
  8297 C67     44.5870  30.1515  11.7745   C.2       1 RES1   0.0000
  8298 C68     44.5870  32.2703  14.9777   C.2       1 RES1   0.0000
  8299 C69     47.4441  35.6696  14.4355   C.2       1 RES1   0.0000
  8300 C70     50.6473  35.6696  12.3167   C.2       1 RES1   0.0000
  8301 C71     47.4441  26.7522  12.3167   C.2       1 RES1   0.0000
  8302 C72     50.6473  26.7522  14.4355   C.2       1 RES1   0.0000
  8303 C73     40.2478  22.9445   0.0018   C.2       1 RES1   0.0000
  8304 C74     40.0088  21.6425   0.0018   C.2       1 RES1   0.0000
  8305 C75     40.0088  22.9445   8.9156   C.2       1 RES1   0.0000
  8306 C76     40.2478  21.6425   8.9156   C.2       1 RES1   0.0000
  8307 C77     35.6714  22.4130   5.1097   C.2       1 RES1   0.0000
  8308 C78     35.6714  22.1740   3.8077   C.2       1 RES1   0.0000
  8309 C79     44.5852  22.1740   5.1097   C.2       1 RES1   0.0000
  8310 C80     44.5852  22.4130   3.8077   C.2       1 RES1   0.0000
  8311 C81     40.7793  17.8366   4.5782   C.2       1 RES1   0.0000
  8312 C82     39.4773  17.8366   4.3392   C.2       1 RES1   0.0000
  8313 C83     40.7793  26.7504   4.3392   C.2       1 RES1   0.0000
  8314 C84     39.4773  26.7504   4.5782   C.2       1 RES1   0.0000
  8315 C85     48.9262  30.5599  17.8330   C.2       1 RES1   0.0000
  8316 C86     49.1652  31.8619  17.8330   C.2       1 RES1   0.0000
  8317 C87     49.1652  30.5599   8.9192   C.2       1 RES1   0.0000
  8318 C88     48.9262  31.8619   8.9192   C.2       1 RES1   0.0000
  8319 C89     53.5026  31.0914  12.7251   C.2       1 RES1   0.0000
  8320 C90     53.5026  31.3304  14.0271   C.2       1 RES1   0.0000
  8321 C91     44.5888  31.3304  12.7251   C.2       1 RES1   0.0000
  8322 C92     44.5888  31.0914  14.0271   C.2       1 RES1   0.0000
  8323 C93     48.3947  35.6678  13.2566   C.2       1 RES1   0.0000
  8324 C94     49.6967  35.6678  13.4956   C.2       1 RES1   0.0000
  8325 C95     48.3947  26.7540  13.4956   C.2       1 RES1   0.0000
  8326 C96     49.6967  26.7540  13.2566   C.2       1 RES1   0.0000
  8327 H25     41.1199  23.2673   0.0018   H         1 RES1   0.0000
  8328 H26     39.1367  21.3197   0.0018   H         1 RES1   0.0000
  8329 H27     39.1367  23.2673   8.9156   H         1 RES1   0.0000
  8330 H28     41.1199  21.3197   8.9156   H         1 RES1   0.0000
  8331 H29     35.6714  23.2851   5.4325   H         1 RES1   0.0000
  8332 H30     35.6714  21.3019   3.4849   H         1 RES1   0.0000
  8333 H31     44.5852  21.3019   5.4325   H         1 RES1   0.0000
  8334 H32     44.5852  23.2851   3.4849   H         1 RES1   0.0000
  8335 H33     41.1021  17.8366   5.4503   H         1 RES1   0.0000
  8336 H34     39.1545  17.8366   3.4671   H         1 RES1   0.0000
  8337 H35     41.1021  26.7504   3.4671   H         1 RES1   0.0000
  8338 H36     39.1545  26.7504   5.4503   H         1 RES1   0.0000
  8339 H37     48.0541  30.2371  17.8330   H         1 RES1   0.0000
  8340 H38     50.0373  32.1847  17.8330   H         1 RES1   0.0000
  8341 H39     50.0373  30.2371   8.9192   H         1 RES1   0.0000
  8342 H40     48.0541  32.1847   8.9192   H         1 RES1   0.0000
  8343 H41     53.5026  30.2193  12.4023   H         1 RES1   0.0000
  8344 H42     53.5026  32.2025  14.3499   H         1 RES1   0.0000
  8345 H43     44.5888  32.2025  12.4023   H         1 RES1   0.0000
  8346 H44     44.5888  30.2193  14.3499   H         1 RES1   0.0000
  8347 H45     48.0719  35.6678  12.3845   H         1 RES1   0.0000
  8348 H46     50.0195  35.6678  14.3677   H         1 RES1   0.0000
  8349 H47     48.0719  26.7540  14.3677   H         1 RES1   0.0000
  8350 H48     50.0195  26.7540  12.3845   H         1 RES1   0.0000
  8351 O98     43.2226  34.0341  16.6809   O.3       1 RES1   0.0000
  8352 O99     43.2226  28.3877  10.0713   O.3       1 RES1   0.0000
  8353 O101    52.3505  19.1992  10.5529   O.3       1 RES1   0.0000
  8354 O102    52.3505  25.3878  16.1993   O.3       1 RES1   0.0000
  8355 O103    45.7409  25.3878  10.5529   O.3       1 RES1   0.0000
  8356 O105    46.2225  34.5157   1.3644   O.3       1 RES1   0.0000
  8357 O106    51.8689  34.5157   7.5530   O.3       1 RES1   0.0000
  8358 O107    46.2225  27.9061   7.5530   O.3       1 RES1   0.0000
  8359 O108    51.8689  27.9061   1.3644   O.3       1 RES1   0.0000
  8360 O109    52.1400  25.1167   1.1539   O.3       1 RES1   0.0000
  8361 O110    45.9514  19.4703   1.1539   O.3       1 RES1   0.0000
  8362 O111    45.9514  25.1167   7.7635   O.3       1 RES1   0.0000
  8363 O112    52.1400  19.4703   7.7635   O.3       1 RES1   0.0000
  8364 O115    43.4331  28.1166   7.2819   O.3       1 RES1   0.0000
  8365 O116    43.4331  34.3052   1.6355   O.3       1 RES1   0.0000
  8366 O119    42.9515  25.5983  10.2818   O.3       1 RES1   0.0000
  8367 O120    37.3051  25.5983  16.4704   O.3       1 RES1   0.0000
  8368 O123    43.5240  25.6892   7.8544   O.3       1 RES1   0.0000
  8369 O125    52.4414  27.8152  16.7718   O.3       1 RES1   0.0000
  8370 O126    45.6500  34.6066  16.7718   O.3       1 RES1   0.0000
  8371 O127    45.6500  27.8152   9.9804   O.3       1 RES1   0.0000
  8372 O128    52.4414  34.6066   9.9804   O.3       1 RES1   0.0000
  8373 O130    43.5240  34.4461  16.9502   O.3       1 RES1   0.0000
  8374 O131    43.5240  27.9757   9.8020   O.3       1 RES1   0.0000
  8375 O133    52.6198  18.8978  10.1409   O.3       1 RES1   0.0000
  8376 O134    52.6198  25.6892  16.6113   O.3       1 RES1   0.0000
  8377 O135    45.4716  25.6892  10.1409   O.3       1 RES1   0.0000
  8378 O137    45.8105  34.7850   1.0630   O.3       1 RES1   0.0000
  8379 O138    52.2809  34.7850   7.8544   O.3       1 RES1   0.0000
  8380 O139    45.8105  27.6368   7.8544   O.3       1 RES1   0.0000
  8381 O140    52.2809  27.6368   1.0630   O.3       1 RES1   0.0000
  8382 O141    52.4414  25.5287   0.8846   O.3       1 RES1   0.0000
  8383 O142    45.6500  19.0583   0.8846   O.3       1 RES1   0.0000
  8384 O143    45.6500  25.5287   8.0328   O.3       1 RES1   0.0000
  8385 O144    52.4414  19.0583   8.0328   O.3       1 RES1   0.0000
  8386 O147    43.7024  27.8152   7.6939   O.3       1 RES1   0.0000
  8387 O148    43.7024  34.6066   1.2235   O.3       1 RES1   0.0000
  8388 O151    43.3635  25.8676   9.9804   O.3       1 RES1   0.0000
  8389 O152    36.8931  25.8676  16.7718   O.3       1 RES1   0.0000
  8390 O155    43.1870  25.3522   7.5174   O.3       1 RES1   0.0000
  8391 O157    52.1044  28.1522  16.4348   O.3       1 RES1   0.0000
  8392 O158    45.9870  34.2696  16.4348   O.3       1 RES1   0.0000
  8393 O159    45.9870  28.1522  10.3174   O.3       1 RES1   0.0000
  8394 O160    52.1044  34.2696  10.3174   O.3       1 RES1   0.0000
  8395 Zr1     55.9629  26.9507   0.2119   Zr        1 RES1   0.0000
  8396 Zr2     42.1285  35.4711  18.0467   Zr        1 RES1   0.0000
  8397 Zr4     55.9629  35.4711   8.7055   Zr        1 RES1   0.0000
  8398 Zr5     53.7163  20.2933   9.1159   Zr        1 RES1   0.0000
  8399 Zr6     53.7163  24.2937  -0.1985   Zr        1 RES1   0.0000
  8400 Zr6     53.7163  24.2937  17.6363   Zr        1 RES1   0.0000
  8401 Zr8     44.3751  38.1281  -0.1985   Zr        1 RES1   0.0000
  8402 Zr8     44.3751  38.1281  17.6363   Zr        1 RES1   0.0000
  8403 Zr9     44.7855  35.8815   2.4585   Zr        1 RES1   0.0000
  8404 Zr10    53.3059  35.8815   6.4589   Zr        1 RES1   0.0000
  8405 Zr12    53.3059  26.5403  20.2933   Zr        1 RES1   0.0000
  8406 Zr13    51.0459  26.5537  -0.2119   Zr        1 RES1   0.0000
  8407 Zr14    47.0455  35.8681  -0.2119   Zr        1 RES1   0.0000
  8408 Zr14    47.0455  35.8681  17.6229   Zr        1 RES1   0.0000
  8409 Zr16    51.0459  35.8681   9.1293   Zr        1 RES1   0.0000
  8410 Zr18    53.2925  29.2107  18.0333   Zr        1 RES1   0.0000
  8411 Zr20    44.7989  33.2111  18.0333   Zr        1 RES1   0.0000
  8412 Zr21    44.3885  35.4577  -2.4585   Zr        1 RES1   0.0000
  8413 Zr22    53.7029  35.4577  11.3759   Zr        1 RES1   0.0000
  8414 Zr24    53.7029  26.9641  -2.4585   Zr        1 RES1   0.0000
  8415 Zr24    53.7029  26.9641  15.3763   Zr        1 RES1   0.0000
  8416 O2      40.8595  37.3015   0.1427   O.co2     1 RES1   0.0000
  8417 O4      39.3971  37.3015   8.7747   O.co2     1 RES1   0.0000
  8418 O6      35.8123  23.0247  19.4667   O.co2     1 RES1   0.0000
  8419 O8      44.4443  21.5623  19.4667   O.co2     1 RES1   0.0000
  8420 O10     55.1363  17.9775   5.1899   O.2       1 RES1   0.0000
  8421 O12     55.1363  26.6095   3.7275   O.2       1 RES1   0.0000
  8422 O18     53.3617  30.4797  -1.6319   O.2       1 RES1   0.0000
  8423 O20     44.7297  31.9421  -1.6319   O.2       1 RES1   0.0000
  8424 O50     41.2055  35.5394   2.2525   O.co2     1 RES1   0.0000
  8425 O52     39.0511  35.5394   6.6649   O.co2     1 RES1   0.0000
  8426 O54     37.9221  23.3707  17.7046   O.co2     1 RES1   0.0000
  8427 O56     42.3345  21.2163  17.7046   O.co2     1 RES1   0.0000
  8428 O58     53.3742  20.0873   5.5359   O.2       1 RES1   0.0000
  8429 O60     53.3742  24.4997   3.3815   O.2       1 RES1   0.0000
  8430 O66     51.2519  30.1337   0.1302   O.2       1 RES1   0.0000
  8431 O68     46.8395  32.2881   0.1302   O.2       1 RES1   0.0000
  8432 O73     39.3935  27.1785  -1.6158   O.2       1 RES1   0.0000
  8433 O74     40.8631  35.2433  -1.6158   O.2       1 RES1   0.0000
  8434 O85     49.7805  26.3259  19.4506   O.co2     1 RES1   0.0000
  8435 O86     48.3109  18.2611  19.4506   O.co2     1 RES1   0.0000
  8436 O89     55.1202  31.9457   8.4911   O.2       1 RES1   0.0000
  8437 O90     55.1202  30.4761   0.4263   O.2       1 RES1   0.0000
  8438 O93     44.1607  37.2854  14.1109   O.co2     1 RES1   0.0000
  8439 O94     36.0959  37.2854  12.6413   O.co2     1 RES1   0.0000
  8440 O97     54.8688  28.3877  -1.1539   O.3       1 RES1   0.0000
  8441 O98     43.2226  34.0341  -1.1539   O.3       1 RES1   0.0000
  8442 O100    54.8688  34.0341  10.0713   O.3       1 RES1   0.0000
  8443 O104    45.7409  37.0340  16.1993   O.3       1 RES1   0.0000
  8444 O108    51.8689  27.9061  19.1992   O.3       1 RES1   0.0000
  8445 O109    52.1400  25.1167  18.9887   O.3       1 RES1   0.0000
  8446 O110    45.9514  19.4703  18.9887   O.3       1 RES1   0.0000
  8447 O113    54.6583  34.3052   7.2819   O.3       1 RES1   0.0000
  8448 O114    54.6583  28.1166   1.6355   O.3       1 RES1   0.0000
  8449 O117    42.9515  36.8235  -1.3644   O.3       1 RES1   0.0000
  8450 O117    42.9515  36.8235  16.4704   O.3       1 RES1   0.0000
  8451 O118    37.3051  36.8235  10.2818   O.3       1 RES1   0.0000
  8452 O120    37.3051  25.5983  -1.3644   O.3       1 RES1   0.0000
  8453 O121    54.5674  25.6892   1.0630   O.3       1 RES1   0.0000
  8454 O122    43.5240  36.7326   1.0630   O.3       1 RES1   0.0000
  8455 O124    54.5674  18.8978   7.8544   O.3       1 RES1   0.0000
  8456 O125    52.4414  27.8152  -1.0630   O.3       1 RES1   0.0000
  8457 O126    45.6500  34.6066  -1.0630   O.3       1 RES1   0.0000
  8458 O129    54.5674  27.9757  -0.8846   O.3       1 RES1   0.0000
  8459 O130    43.5240  34.4461  -0.8846   O.3       1 RES1   0.0000
  8460 O132    54.5674  34.4461   9.8020   O.3       1 RES1   0.0000
  8461 O136    45.4716  36.7326  16.6113   O.3       1 RES1   0.0000
  8462 O140    52.2809  27.6368  18.8978   O.3       1 RES1   0.0000
  8463 O141    52.4414  25.5287  18.7194   O.3       1 RES1   0.0000
  8464 O142    45.6500  19.0583  18.7194   O.3       1 RES1   0.0000
  8465 O145    54.3890  34.6066   7.6939   O.3       1 RES1   0.0000
  8466 O146    54.3890  27.8152   1.2235   O.3       1 RES1   0.0000
  8467 O149    43.3635  36.5542  -1.0630   O.3       1 RES1   0.0000
  8468 O149    43.3635  36.5542  16.7718   O.3       1 RES1   0.0000
  8469 O150    36.8931  36.5542   9.9804   O.3       1 RES1   0.0000
  8470 O152    36.8931  25.8676  -1.0630   O.3       1 RES1   0.0000
  8471 O153    54.9044  25.3522   1.4000   O.3       1 RES1   0.0000
  8472 O154    43.1870  37.0696   1.4000   O.3       1 RES1   0.0000
  8473 O156    54.9044  19.2348   7.5174   O.3       1 RES1   0.0000
  8474 O157    52.1044  28.1522  -1.4000   O.3       1 RES1   0.0000
  8475 O158    45.9870  34.2696  -1.4000   O.3       1 RES1   0.0000
  8476 Zr3     42.1285  26.9507  26.5403   Zr        1 RES1   0.0000
  8477 Zr7     44.3751  24.2937  26.9507   Zr        1 RES1   0.0000
  8478 Zr11    44.7855  26.5403  24.2937   Zr        1 RES1   0.0000
  8479 Zr13    51.0459  26.5537  35.4577   Zr        1 RES1   0.0000
  8480 Zr15    47.0455  26.5537  26.9641   Zr        1 RES1   0.0000
  8481 Zr17    53.2925  33.2111  26.5537   Zr        1 RES1   0.0000
  8482 Zr19    44.7989  29.2107  26.5537   Zr        1 RES1   0.0000
  8483 Zr21    44.3885  35.4577  33.2111   Zr        1 RES1   0.0000
  8484 Zr23    44.3885  26.9641  29.2107   Zr        1 RES1   0.0000
  8485 O1      39.3971  25.1203  17.9775   O.co2     1 RES1   0.0000
  8486 O3      40.8595  25.1203  26.6095   O.co2     1 RES1   0.0000
  8487 O5      35.8123  21.5623  25.1203   O.co2     1 RES1   0.0000
  8488 O7      44.4443  23.0247  25.1203   O.co2     1 RES1   0.0000
  8489 O9      42.9551  17.9775  21.5623   O.co2     1 RES1   0.0000
  8490 O11     42.9551  26.6095  23.0247   O.co2     1 RES1   0.0000
  8491 O13     49.7769  28.3841  35.5269   O.co2     1 RES1   0.0000
  8492 O14     48.3145  34.0377  35.5269   O.co2     1 RES1   0.0000
  8493 O15     48.3145  28.3841  26.8949   O.co2     1 RES1   0.0000
  8494 O16     49.7769  34.0377  26.8949   O.co2     1 RES1   0.0000
  8495 O17     53.3617  31.9421  28.3841   O.co2     1 RES1   0.0000
  8496 O18     53.3617  30.4797  34.0377   O.co2     1 RES1   0.0000
  8497 O19     44.7297  30.4797  28.3841   O.co2     1 RES1   0.0000
  8498 O20     44.7297  31.9421  34.0377   O.co2     1 RES1   0.0000
  8499 O21     46.2189  35.5269  31.9421   O.co2     1 RES1   0.0000
  8500 O22     51.8725  35.5269  30.4797   O.co2     1 RES1   0.0000
  8501 O23     46.2189  26.8949  30.4797   O.co2     1 RES1   0.0000
  8502 O24     51.8725  26.8949  31.9421   O.co2     1 RES1   0.0000
  8503 O25     39.0653  28.9744  18.2735   O.co2     1 RES1   0.0000
  8504 O26     41.1913  33.4474  18.2735   O.co2     1 RES1   0.0000
  8505 O27     41.1913  28.9744  26.3135   O.co2     1 RES1   0.0000
  8506 O28     39.0653  33.4474  26.3135   O.co2     1 RES1   0.0000
  8507 O29     36.1083  21.2305  28.9744   O.co2     1 RES1   0.0000
  8508 O30     36.1083  23.3565  33.4474   O.co2     1 RES1   0.0000
  8509 O31     44.1483  23.3565  28.9744   O.co2     1 RES1   0.0000
  8510 O32     44.1483  21.2305  33.4474   O.co2     1 RES1   0.0000
  8511 O33     46.8092  18.2735  21.2305   O.co2     1 RES1   0.0000
  8512 O34     51.2822  18.2735  23.3565   O.co2     1 RES1   0.0000
  8513 O35     46.8092  26.3135  23.3565   O.co2     1 RES1   0.0000
  8514 O36     51.2822  26.3135  21.2305   O.co2     1 RES1   0.0000
  8515 O37     50.1087  24.5300  35.2309   O.co2     1 RES1   0.0000
  8516 O38     47.9827  20.0570  35.2309   O.co2     1 RES1   0.0000
  8517 O39     47.9827  24.5300  27.1909   O.co2     1 RES1   0.0000
  8518 O40     50.1087  20.0570  27.1909   O.co2     1 RES1   0.0000
  8519 O41     53.0657  32.2739  24.5300   O.co2     1 RES1   0.0000
  8520 O42     53.0657  30.1479  20.0570   O.co2     1 RES1   0.0000
  8521 O43     45.0257  30.1479  24.5300   O.co2     1 RES1   0.0000
  8522 O44     45.0257  32.2739  20.0570   O.co2     1 RES1   0.0000
  8523 O45     42.3648  35.2309  32.2739   O.co2     1 RES1   0.0000
  8524 O46     37.8918  35.2309  30.1479   O.co2     1 RES1   0.0000
  8525 O47     42.3648  27.1909  30.1479   O.co2     1 RES1   0.0000
  8526 O48     37.8918  27.1909  32.2739   O.co2     1 RES1   0.0000
  8527 O49     39.0511  26.8824  20.0873   O.co2     1 RES1   0.0000
  8528 O51     41.2055  26.8824  24.4997   O.co2     1 RES1   0.0000
  8529 O53     37.9221  21.2163  26.8824   O.co2     1 RES1   0.0000
  8530 O55     42.3345  23.3707  26.8824   O.co2     1 RES1   0.0000
  8531 O57     44.7172  20.0873  21.2163   O.co2     1 RES1   0.0000
  8532 O59     44.7172  24.4997  23.3707   O.co2     1 RES1   0.0000
  8533 O61     50.1229  26.6220  33.4171   O.co2     1 RES1   0.0000
  8534 O62     47.9685  35.7998  33.4171   O.co2     1 RES1   0.0000
  8535 O63     47.9685  26.6220  29.0047   O.co2     1 RES1   0.0000
  8536 O64     50.1229  35.7998  29.0047   O.co2     1 RES1   0.0000
  8537 O65     51.2519  32.2881  26.6220   O.co2     1 RES1   0.0000
  8538 O66     51.2519  30.1337  35.7998   O.co2     1 RES1   0.0000
  8539 O67     46.8395  30.1337  26.6220   O.co2     1 RES1   0.0000
  8540 O68     46.8395  32.2881  35.7998   O.co2     1 RES1   0.0000
  8541 O69     44.4568  33.4171  32.2881   O.co2     1 RES1   0.0000
  8542 O70     53.6346  33.4171  30.1337   O.co2     1 RES1   0.0000
  8543 O71     44.4568  29.0047  30.1337   O.co2     1 RES1   0.0000
  8544 O72     53.6346  29.0047  32.2881   O.co2     1 RES1   0.0000
  8545 O73     39.3935  27.1785  34.0538   O.co2     1 RES1   0.0000
  8546 O74     40.8631  35.2433  34.0538   O.co2     1 RES1   0.0000
  8547 O75     40.8631  27.1785  28.3680   O.co2     1 RES1   0.0000
  8548 O76     39.3935  35.2433  28.3680   O.co2     1 RES1   0.0000
  8549 O77     51.8886  21.5587  27.1785   O.co2     1 RES1   0.0000
  8550 O78     51.8886  23.0283  35.2433   O.co2     1 RES1   0.0000
  8551 O79     46.2028  23.0283  27.1785   O.co2     1 RES1   0.0000
  8552 O80     46.2028  21.5587  35.2433   O.co2     1 RES1   0.0000
  8553 O81     45.0133  34.0538  21.5587   O.co2     1 RES1   0.0000
  8554 O82     53.0781  34.0538  23.0283   O.co2     1 RES1   0.0000
  8555 O83     45.0133  28.3680  23.0283   O.co2     1 RES1   0.0000
  8556 O84     53.0781  28.3680  21.5587   O.co2     1 RES1   0.0000
  8557 O87     48.3109  26.3259  25.1364   O.co2     1 RES1   0.0000
  8558 O88     49.7805  18.2611  25.1364   O.co2     1 RES1   0.0000
  8559 O91     42.9712  30.4761  26.3259   O.co2     1 RES1   0.0000
  8560 O92     42.9712  31.9457  18.2611   O.co2     1 RES1   0.0000
  8561 O95     44.1607  25.1364  30.4761   O.co2     1 RES1   0.0000
  8562 O96     36.0959  25.1364  31.9457   O.co2     1 RES1   0.0000
  8563 C1      38.5303  30.1248  18.2628   C.2       1 RES1   0.0000
  8564 C2      41.7263  32.2970  18.2628   C.2       1 RES1   0.0000
  8565 C3      41.7263  30.1248  26.3242   C.2       1 RES1   0.0000
  8566 C4      38.5303  32.2970  26.3242   C.2       1 RES1   0.0000
  8567 C5      36.0976  20.6955  30.1248   C.2       1 RES1   0.0000
  8568 C6      36.0976  23.8915  32.2970   C.2       1 RES1   0.0000
  8569 C7      44.1590  23.8915  30.1248   C.2       1 RES1   0.0000
  8570 C8      44.1590  20.6955  32.2970   C.2       1 RES1   0.0000
  8571 C9      47.9596  18.2628  20.6955   C.2       1 RES1   0.0000
  8572 C10     50.1318  18.2628  23.8915   C.2       1 RES1   0.0000
  8573 C11     47.9596  26.3242  23.8915   C.2       1 RES1   0.0000
  8574 C12     50.1318  26.3242  20.6955   C.2       1 RES1   0.0000
  8575 C13     50.6437  23.3796  35.2416   C.2       1 RES1   0.0000
  8576 C14     47.4477  21.2074  35.2416   C.2       1 RES1   0.0000
  8577 C15     47.4477  23.3796  27.1802   C.2       1 RES1   0.0000
  8578 C16     50.6437  21.2074  27.1802   C.2       1 RES1   0.0000
  8579 C17     53.0764  32.8089  23.3796   C.2       1 RES1   0.0000
  8580 C18     53.0764  29.6129  21.2074   C.2       1 RES1   0.0000
  8581 C19     45.0150  29.6129  23.3796   C.2       1 RES1   0.0000
  8582 C20     45.0150  32.8089  21.2074   C.2       1 RES1   0.0000
  8583 C21     41.2144  35.2416  32.8089   C.2       1 RES1   0.0000
  8584 C22     39.0422  35.2416  29.6129   C.2       1 RES1   0.0000
  8585 C23     41.2144  27.1802  29.6129   C.2       1 RES1   0.0000
  8586 C24     39.0422  27.1802  32.8089   C.2       1 RES1   0.0000
  8587 C25     39.4898  31.3090  18.2682   C.2       1 RES1   0.0000
  8588 C26     40.7668  31.1128  18.2682   C.2       1 RES1   0.0000
  8589 C27     40.7668  31.3090  26.3188   C.2       1 RES1   0.0000
  8590 C28     39.4898  31.1128  26.3188   C.2       1 RES1   0.0000
  8591 C29     36.1030  21.6550  31.3090   C.2       1 RES1   0.0000
  8592 C30     36.1030  22.9320  31.1128   C.2       1 RES1   0.0000
  8593 C31     44.1536  22.9320  31.3090   C.2       1 RES1   0.0000
  8594 C32     44.1536  21.6550  31.1128   C.2       1 RES1   0.0000
  8595 C33     49.1438  18.2682  21.6550   C.2       1 RES1   0.0000
  8596 C34     48.9476  18.2682  22.9320   C.2       1 RES1   0.0000
  8597 C35     49.1438  26.3188  22.9320   C.2       1 RES1   0.0000
  8598 C36     48.9476  26.3188  21.6550   C.2       1 RES1   0.0000
  8599 C37     49.6842  22.1954  35.2362   C.2       1 RES1   0.0000
  8600 C38     48.4072  22.3916  35.2362   C.2       1 RES1   0.0000
  8601 C39     48.4072  22.1954  27.1856   C.2       1 RES1   0.0000
  8602 C40     49.6842  22.3916  27.1856   C.2       1 RES1   0.0000
  8603 C41     53.0710  31.8494  22.1954   C.2       1 RES1   0.0000
  8604 C42     53.0710  30.5724  22.3916   C.2       1 RES1   0.0000
  8605 C43     45.0204  30.5724  22.1954   C.2       1 RES1   0.0000
  8606 C44     45.0204  31.8494  22.3916   C.2       1 RES1   0.0000
  8607 C45     40.0302  35.2362  31.8494   C.2       1 RES1   0.0000
  8608 C46     40.2264  35.2362  30.5724   C.2       1 RES1   0.0000
  8609 C47     40.0302  27.1856  30.5724   C.2       1 RES1   0.0000
  8610 C48     40.2264  27.1856  31.8494   C.2       1 RES1   0.0000
  8611 H1      39.1563  32.1775  18.2700   H         1 RES1   0.0000
  8612 H2      41.1003  30.2443  18.2700   H         1 RES1   0.0000
  8613 H3      41.1003  32.1775  26.3170   H         1 RES1   0.0000
  8614 H4      39.1563  30.2443  26.3170   H         1 RES1   0.0000
  8615 H5      36.1048  21.3215  32.1775   H         1 RES1   0.0000
  8616 H6      36.1048  23.2655  30.2443   H         1 RES1   0.0000
  8617 H7      44.1518  23.2655  32.1775   H         1 RES1   0.0000
  8618 H8      44.1518  21.3215  30.2443   H         1 RES1   0.0000
  8619 H9      50.0123  18.2700  21.3215   H         1 RES1   0.0000
  8620 H10     48.0791  18.2700  23.2655   H         1 RES1   0.0000
  8621 H11     50.0123  26.3170  23.2655   H         1 RES1   0.0000
  8622 H12     48.0791  26.3170  21.3215   H         1 RES1   0.0000
  8623 H13     50.0177  21.3269  35.2344   H         1 RES1   0.0000
  8624 H14     48.0737  23.2601  35.2344   H         1 RES1   0.0000
  8625 H15     48.0737  21.3269  27.1874   H         1 RES1   0.0000
  8626 H16     50.0177  23.2601  27.1874   H         1 RES1   0.0000
  8627 H17     53.0692  32.1829  21.3269   H         1 RES1   0.0000
  8628 H18     53.0692  30.2389  23.2601   H         1 RES1   0.0000
  8629 H19     45.0222  30.2389  21.3269   H         1 RES1   0.0000
  8630 H20     45.0222  32.1829  23.2601   H         1 RES1   0.0000
  8631 H21     39.1617  35.2344  32.1829   H         1 RES1   0.0000
  8632 H22     41.0949  35.2344  30.2389   H         1 RES1   0.0000
  8633 H23     39.1617  27.1874  30.2389   H         1 RES1   0.0000
  8634 H24     41.0949  27.1874  32.1829   H         1 RES1   0.0000
  8635 C49     39.0689  23.8951  17.8348   C.2       1 RES1   0.0000
  8636 C50     41.1877  20.6919  17.8348   C.2       1 RES1   0.0000
  8637 C51     41.1877  23.8951  26.7522   C.2       1 RES1   0.0000
  8638 C52     39.0689  20.6919  26.7522   C.2       1 RES1   0.0000
  8639 C53     35.6696  21.2341  23.8951   C.2       1 RES1   0.0000
  8640 C54     35.6696  23.3529  20.6919   C.2       1 RES1   0.0000
  8641 C55     44.5870  23.3529  23.8951   C.2       1 RES1   0.0000
  8642 C56     44.5870  21.2341  20.6919   C.2       1 RES1   0.0000
  8643 C57     41.7299  17.8348  21.2341   C.2       1 RES1   0.0000
  8644 C58     38.5267  17.8348  23.3529   C.2       1 RES1   0.0000
  8645 C59     41.7299  26.7522  23.3529   C.2       1 RES1   0.0000
  8646 C60     38.5267  26.7522  21.2341   C.2       1 RES1   0.0000
  8647 C61     50.1051  29.6093  35.6696   C.2       1 RES1   0.0000
  8648 C62     47.9863  32.8125  35.6696   C.2       1 RES1   0.0000
  8649 C63     47.9863  29.6093  26.7522   C.2       1 RES1   0.0000
  8650 C64     50.1051  32.8125  26.7522   C.2       1 RES1   0.0000
  8651 C65     53.5044  32.2703  29.6093   C.2       1 RES1   0.0000
  8652 C66     53.5044  30.1515  32.8125   C.2       1 RES1   0.0000
  8653 C67     44.5870  30.1515  29.6093   C.2       1 RES1   0.0000
  8654 C68     44.5870  32.2703  32.8125   C.2       1 RES1   0.0000
  8655 C69     47.4441  35.6696  32.2703   C.2       1 RES1   0.0000
  8656 C70     50.6473  35.6696  30.1515   C.2       1 RES1   0.0000
  8657 C71     47.4441  26.7522  30.1515   C.2       1 RES1   0.0000
  8658 C72     50.6473  26.7522  32.2703   C.2       1 RES1   0.0000
  8659 C73     40.2478  22.9445  17.8366   C.2       1 RES1   0.0000
  8660 C74     40.0088  21.6425  17.8366   C.2       1 RES1   0.0000
  8661 C75     40.0088  22.9445  26.7504   C.2       1 RES1   0.0000
  8662 C76     40.2478  21.6425  26.7504   C.2       1 RES1   0.0000
  8663 C77     35.6714  22.4130  22.9445   C.2       1 RES1   0.0000
  8664 C78     35.6714  22.1740  21.6425   C.2       1 RES1   0.0000
  8665 C79     44.5852  22.1740  22.9445   C.2       1 RES1   0.0000
  8666 C80     44.5852  22.4130  21.6425   C.2       1 RES1   0.0000
  8667 C81     40.7793  17.8366  22.4130   C.2       1 RES1   0.0000
  8668 C82     39.4773  17.8366  22.1740   C.2       1 RES1   0.0000
  8669 C83     40.7793  26.7504  22.1740   C.2       1 RES1   0.0000
  8670 C84     39.4773  26.7504  22.4130   C.2       1 RES1   0.0000
  8671 C85     48.9262  30.5599  35.6678   C.2       1 RES1   0.0000
  8672 C86     49.1652  31.8619  35.6678   C.2       1 RES1   0.0000
  8673 C87     49.1652  30.5599  26.7540   C.2       1 RES1   0.0000
  8674 C88     48.9262  31.8619  26.7540   C.2       1 RES1   0.0000
  8675 C89     53.5026  31.0914  30.5599   C.2       1 RES1   0.0000
  8676 C90     53.5026  31.3304  31.8619   C.2       1 RES1   0.0000
  8677 C91     44.5888  31.3304  30.5599   C.2       1 RES1   0.0000
  8678 C92     44.5888  31.0914  31.8619   C.2       1 RES1   0.0000
  8679 C93     48.3947  35.6678  31.0914   C.2       1 RES1   0.0000
  8680 C94     49.6967  35.6678  31.3304   C.2       1 RES1   0.0000
  8681 C95     48.3947  26.7540  31.3304   C.2       1 RES1   0.0000
  8682 C96     49.6967  26.7540  31.0914   C.2       1 RES1   0.0000
  8683 H25     41.1199  23.2673  17.8366   H         1 RES1   0.0000
  8684 H26     39.1367  21.3197  17.8366   H         1 RES1   0.0000
  8685 H27     39.1367  23.2673  26.7504   H         1 RES1   0.0000
  8686 H28     41.1199  21.3197  26.7504   H         1 RES1   0.0000
  8687 H29     35.6714  23.2851  23.2673   H         1 RES1   0.0000
  8688 H30     35.6714  21.3019  21.3197   H         1 RES1   0.0000
  8689 H31     44.5852  21.3019  23.2673   H         1 RES1   0.0000
  8690 H32     44.5852  23.2851  21.3197   H         1 RES1   0.0000
  8691 H33     41.1021  17.8366  23.2851   H         1 RES1   0.0000
  8692 H34     39.1545  17.8366  21.3019   H         1 RES1   0.0000
  8693 H35     41.1021  26.7504  21.3019   H         1 RES1   0.0000
  8694 H36     39.1545  26.7504  23.2851   H         1 RES1   0.0000
  8695 H37     48.0541  30.2371  35.6678   H         1 RES1   0.0000
  8696 H38     50.0373  32.1847  35.6678   H         1 RES1   0.0000
  8697 H39     50.0373  30.2371  26.7540   H         1 RES1   0.0000
  8698 H40     48.0541  32.1847  26.7540   H         1 RES1   0.0000
  8699 H41     53.5026  30.2193  30.2371   H         1 RES1   0.0000
  8700 H42     53.5026  32.2025  32.1847   H         1 RES1   0.0000
  8701 H43     44.5888  32.2025  30.2371   H         1 RES1   0.0000
  8702 H44     44.5888  30.2193  32.1847   H         1 RES1   0.0000
  8703 H45     48.0719  35.6678  30.2193   H         1 RES1   0.0000
  8704 H46     50.0195  35.6678  32.2025   H         1 RES1   0.0000
  8705 H47     48.0719  26.7540  32.2025   H         1 RES1   0.0000
  8706 H48     50.0195  26.7540  30.2193   H         1 RES1   0.0000
  8707 O98     43.2226  34.0341  34.5157   O.3       1 RES1   0.0000
  8708 O99     43.2226  28.3877  27.9061   O.3       1 RES1   0.0000
  8709 O101    52.3505  19.1992  28.3877   O.3       1 RES1   0.0000
  8710 O102    52.3505  25.3878  34.0341   O.3       1 RES1   0.0000
  8711 O103    45.7409  25.3878  28.3877   O.3       1 RES1   0.0000
  8712 O105    46.2225  34.5157  19.1992   O.3       1 RES1   0.0000
  8713 O106    51.8689  34.5157  25.3878   O.3       1 RES1   0.0000
  8714 O107    46.2225  27.9061  25.3878   O.3       1 RES1   0.0000
  8715 O111    45.9514  25.1167  25.5983   O.3       1 RES1   0.0000
  8716 O112    52.1400  19.4703  25.5983   O.3       1 RES1   0.0000
  8717 O115    43.4331  28.1166  25.1167   O.3       1 RES1   0.0000
  8718 O116    43.4331  34.3052  19.4703   O.3       1 RES1   0.0000
  8719 O119    42.9515  25.5983  28.1166   O.3       1 RES1   0.0000
  8720 O120    37.3051  25.5983  34.3052   O.3       1 RES1   0.0000
  8721 O123    43.5240  25.6892  25.6892   O.3       1 RES1   0.0000
  8722 O125    52.4414  27.8152  34.6066   O.3       1 RES1   0.0000
  8723 O126    45.6500  34.6066  34.6066   O.3       1 RES1   0.0000
  8724 O127    45.6500  27.8152  27.8152   O.3       1 RES1   0.0000
  8725 O128    52.4414  34.6066  27.8152   O.3       1 RES1   0.0000
  8726 O130    43.5240  34.4461  34.7850   O.3       1 RES1   0.0000
  8727 O131    43.5240  27.9757  27.6368   O.3       1 RES1   0.0000
  8728 O133    52.6198  18.8978  27.9757   O.3       1 RES1   0.0000
  8729 O134    52.6198  25.6892  34.4461   O.3       1 RES1   0.0000
  8730 O135    45.4716  25.6892  27.9757   O.3       1 RES1   0.0000
  8731 O137    45.8105  34.7850  18.8978   O.3       1 RES1   0.0000
  8732 O138    52.2809  34.7850  25.6892   O.3       1 RES1   0.0000
  8733 O139    45.8105  27.6368  25.6892   O.3       1 RES1   0.0000
  8734 O143    45.6500  25.5287  25.8676   O.3       1 RES1   0.0000
  8735 O144    52.4414  19.0583  25.8676   O.3       1 RES1   0.0000
  8736 O147    43.7024  27.8152  25.5287   O.3       1 RES1   0.0000
  8737 O148    43.7024  34.6066  19.0583   O.3       1 RES1   0.0000
  8738 O151    43.3635  25.8676  27.8152   O.3       1 RES1   0.0000
  8739 O152    36.8931  25.8676  34.6066   O.3       1 RES1   0.0000
  8740 O155    43.1870  25.3522  25.3522   O.3       1 RES1   0.0000
  8741 O157    52.1044  28.1522  34.2696   O.3       1 RES1   0.0000
  8742 O158    45.9870  34.2696  34.2696   O.3       1 RES1   0.0000
  8743 O159    45.9870  28.1522  28.1522   O.3       1 RES1   0.0000
  8744 O160    52.1044  34.2696  28.1522   O.3       1 RES1   0.0000
  8745 Zr1     55.9629  26.9507  18.0467   Zr        1 RES1   0.0000
  8746 Zr2     42.1285  35.4711  35.8815   Zr        1 RES1   0.0000
  8747 Zr4     55.9629  35.4711  26.5403   Zr        1 RES1   0.0000
  8748 Zr5     53.7163  20.2933  26.9507   Zr        1 RES1   0.0000
  8749 Zr6     53.7163  24.2937  35.4711   Zr        1 RES1   0.0000
  8750 Zr8     44.3751  38.1281  35.4711   Zr        1 RES1   0.0000
  8751 Zr9     44.7855  35.8815  20.2933   Zr        1 RES1   0.0000
  8752 Zr10    53.3059  35.8815  24.2937   Zr        1 RES1   0.0000
  8753 Zr12    53.3059  26.5403  38.1281   Zr        1 RES1   0.0000
  8754 Zr14    47.0455  35.8681  35.4577   Zr        1 RES1   0.0000
  8755 Zr16    51.0459  35.8681  26.9641   Zr        1 RES1   0.0000
  8756 Zr18    53.2925  29.2107  35.8681   Zr        1 RES1   0.0000
  8757 Zr20    44.7989  33.2111  35.8681   Zr        1 RES1   0.0000
  8758 Zr22    53.7029  35.4577  29.2107   Zr        1 RES1   0.0000
  8759 Zr24    53.7029  26.9641  33.2111   Zr        1 RES1   0.0000
  8760 O2      40.8595  37.3015  17.9775   O.co2     1 RES1   0.0000
  8761 O4      39.3971  37.3015  26.6095   O.co2     1 RES1   0.0000
  8762 O6      35.8123  23.0247  37.3015   O.co2     1 RES1   0.0000
  8763 O8      44.4443  21.5623  37.3015   O.co2     1 RES1   0.0000
  8764 O10     55.1363  17.9775  23.0247   O.2       1 RES1   0.0000
  8765 O12     55.1363  26.6095  21.5623   O.2       1 RES1   0.0000
  8766 O50     41.2055  35.5394  20.0873   O.co2     1 RES1   0.0000
  8767 O52     39.0511  35.5394  24.4997   O.co2     1 RES1   0.0000
  8768 O54     37.9221  23.3707  35.5394   O.co2     1 RES1   0.0000
  8769 O56     42.3345  21.2163  35.5394   O.co2     1 RES1   0.0000
  8770 O58     53.3742  20.0873  23.3707   O.2       1 RES1   0.0000
  8771 O60     53.3742  24.4997  21.2163   O.2       1 RES1   0.0000
  8772 O85     49.7805  26.3259  37.2854   O.co2     1 RES1   0.0000
  8773 O86     48.3109  18.2611  37.2854   O.co2     1 RES1   0.0000
  8774 O89     55.1202  31.9457  26.3259   O.2       1 RES1   0.0000
  8775 O90     55.1202  30.4761  18.2611   O.2       1 RES1   0.0000
  8776 O93     44.1607  37.2854  31.9457   O.co2     1 RES1   0.0000
  8777 O94     36.0959  37.2854  30.4761   O.co2     1 RES1   0.0000
  8778 O97     54.8688  28.3877  16.6809   O.3       1 RES1   0.0000
  8779 O100    54.8688  34.0341  27.9061   O.3       1 RES1   0.0000
  8780 O104    45.7409  37.0340  34.0341   O.3       1 RES1   0.0000
  8781 O108    51.8689  27.9061  37.0340   O.3       1 RES1   0.0000
  8782 O109    52.1400  25.1167  36.8235   O.3       1 RES1   0.0000
  8783 O110    45.9514  19.4703  36.8235   O.3       1 RES1   0.0000
  8784 O113    54.6583  34.3052  25.1167   O.3       1 RES1   0.0000
  8785 O114    54.6583  28.1166  19.4703   O.3       1 RES1   0.0000
  8786 O117    42.9515  36.8235  34.3052   O.3       1 RES1   0.0000
  8787 O118    37.3051  36.8235  28.1166   O.3       1 RES1   0.0000
  8788 O121    54.5674  25.6892  18.8978   O.3       1 RES1   0.0000
  8789 O122    43.5240  36.7326  18.8978   O.3       1 RES1   0.0000
  8790 O124    54.5674  18.8978  25.6892   O.3       1 RES1   0.0000
  8791 O129    54.5674  27.9757  16.9502   O.3       1 RES1   0.0000
  8792 O132    54.5674  34.4461  27.6368   O.3       1 RES1   0.0000
  8793 O136    45.4716  36.7326  34.4461   O.3       1 RES1   0.0000
  8794 O140    52.2809  27.6368  36.7326   O.3       1 RES1   0.0000
  8795 O141    52.4414  25.5287  36.5542   O.3       1 RES1   0.0000
  8796 O142    45.6500  19.0583  36.5542   O.3       1 RES1   0.0000
  8797 O145    54.3890  34.6066  25.5287   O.3       1 RES1   0.0000
  8798 O146    54.3890  27.8152  19.0583   O.3       1 RES1   0.0000
  8799 O149    43.3635  36.5542  34.6066   O.3       1 RES1   0.0000
  8800 O150    36.8931  36.5542  27.8152   O.3       1 RES1   0.0000
  8801 O153    54.9044  25.3522  19.2348   O.3       1 RES1   0.0000
  8802 O154    43.1870  37.0696  19.2348   O.3       1 RES1   0.0000
  8803 O156    54.9044  19.2348  25.3522   O.3       1 RES1   0.0000
  8804 Zr3     42.1285  26.9507  44.3751   Zr        1 RES1   0.0000
  8805 Zr7     44.3751  24.2937  44.7855   Zr        1 RES1   0.0000
  8806 Zr11    44.7855  26.5403  42.1285   Zr        1 RES1   0.0000
  8807 Zr13    51.0459  26.5537  53.2925   Zr        1 RES1   0.0000
  8808 Zr15    47.0455  26.5537  44.7989   Zr        1 RES1   0.0000
  8809 Zr17    53.2925  33.2111  44.3885   Zr        1 RES1   0.0000
  8810 Zr19    44.7989  29.2107  44.3885   Zr        1 RES1   0.0000
  8811 Zr21    44.3885  35.4577  51.0459   Zr        1 RES1   0.0000
  8812 Zr23    44.3885  26.9641  47.0455   Zr        1 RES1   0.0000
  8813 O1      39.3971  25.1203  35.8123   O.co2     1 RES1   0.0000
  8814 O3      40.8595  25.1203  44.4443   O.co2     1 RES1   0.0000
  8815 O5      35.8123  21.5623  42.9551   O.co2     1 RES1   0.0000
  8816 O7      44.4443  23.0247  42.9551   O.co2     1 RES1   0.0000
  8817 O9      42.9551  17.9775  39.3971   O.co2     1 RES1   0.0000
  8818 O11     42.9551  26.6095  40.8595   O.co2     1 RES1   0.0000
  8819 O13     49.7769  28.3841  53.3617   O.co2     1 RES1   0.0000
  8820 O14     48.3145  34.0377  53.3617   O.co2     1 RES1   0.0000
  8821 O15     48.3145  28.3841  44.7297   O.co2     1 RES1   0.0000
  8822 O16     49.7769  34.0377  44.7297   O.co2     1 RES1   0.0000
  8823 O17     53.3617  31.9421  46.2189   O.co2     1 RES1   0.0000
  8824 O18     53.3617  30.4797  51.8725   O.co2     1 RES1   0.0000
  8825 O19     44.7297  30.4797  46.2189   O.co2     1 RES1   0.0000
  8826 O20     44.7297  31.9421  51.8725   O.co2     1 RES1   0.0000
  8827 O21     46.2189  35.5269  49.7769   O.co2     1 RES1   0.0000
  8828 O22     51.8725  35.5269  48.3145   O.co2     1 RES1   0.0000
  8829 O23     46.2189  26.8949  48.3145   O.co2     1 RES1   0.0000
  8830 O24     51.8725  26.8949  49.7769   O.co2     1 RES1   0.0000
  8831 O25     39.0653  28.9744  36.1083   O.co2     1 RES1   0.0000
  8832 O26     41.1913  33.4474  36.1083   O.co2     1 RES1   0.0000
  8833 O27     41.1913  28.9744  44.1483   O.co2     1 RES1   0.0000
  8834 O28     39.0653  33.4474  44.1483   O.co2     1 RES1   0.0000
  8835 O29     36.1083  21.2305  46.8092   O.co2     1 RES1   0.0000
  8836 O30     36.1083  23.3565  51.2822   O.co2     1 RES1   0.0000
  8837 O31     44.1483  23.3565  46.8092   O.co2     1 RES1   0.0000
  8838 O32     44.1483  21.2305  51.2822   O.co2     1 RES1   0.0000
  8839 O33     46.8092  18.2735  39.0653   O.co2     1 RES1   0.0000
  8840 O34     51.2822  18.2735  41.1913   O.co2     1 RES1   0.0000
  8841 O35     46.8092  26.3135  41.1913   O.co2     1 RES1   0.0000
  8842 O36     51.2822  26.3135  39.0653   O.co2     1 RES1   0.0000
  8843 O37     50.1087  24.5300  53.0657   O.co2     1 RES1   0.0000
  8844 O38     47.9827  20.0570  53.0657   O.co2     1 RES1   0.0000
  8845 O39     47.9827  24.5300  45.0257   O.co2     1 RES1   0.0000
  8846 O40     50.1087  20.0570  45.0257   O.co2     1 RES1   0.0000
  8847 O41     53.0657  32.2739  42.3648   O.co2     1 RES1   0.0000
  8848 O42     53.0657  30.1479  37.8918   O.co2     1 RES1   0.0000
  8849 O43     45.0257  30.1479  42.3648   O.co2     1 RES1   0.0000
  8850 O44     45.0257  32.2739  37.8918   O.co2     1 RES1   0.0000
  8851 O45     42.3648  35.2309  50.1087   O.co2     1 RES1   0.0000
  8852 O46     37.8918  35.2309  47.9827   O.co2     1 RES1   0.0000
  8853 O47     42.3648  27.1909  47.9827   O.co2     1 RES1   0.0000
  8854 O48     37.8918  27.1909  50.1087   O.co2     1 RES1   0.0000
  8855 O49     39.0511  26.8824  37.9221   O.co2     1 RES1   0.0000
  8856 O51     41.2055  26.8824  42.3345   O.co2     1 RES1   0.0000
  8857 O53     37.9221  21.2163  44.7172   O.co2     1 RES1   0.0000
  8858 O55     42.3345  23.3707  44.7172   O.co2     1 RES1   0.0000
  8859 O57     44.7172  20.0873  39.0511   O.co2     1 RES1   0.0000
  8860 O59     44.7172  24.4997  41.2055   O.co2     1 RES1   0.0000
  8861 O61     50.1229  26.6220  51.2519   O.co2     1 RES1   0.0000
  8862 O62     47.9685  35.7998  51.2519   O.co2     1 RES1   0.0000
  8863 O63     47.9685  26.6220  46.8395   O.co2     1 RES1   0.0000
  8864 O64     50.1229  35.7998  46.8395   O.co2     1 RES1   0.0000
  8865 O65     51.2519  32.2881  44.4568   O.co2     1 RES1   0.0000
  8866 O66     51.2519  30.1337  53.6346   O.co2     1 RES1   0.0000
  8867 O67     46.8395  30.1337  44.4568   O.co2     1 RES1   0.0000
  8868 O68     46.8395  32.2881  53.6346   O.co2     1 RES1   0.0000
  8869 O69     44.4568  33.4171  50.1229   O.co2     1 RES1   0.0000
  8870 O70     53.6346  33.4171  47.9685   O.co2     1 RES1   0.0000
  8871 O71     44.4568  29.0047  47.9685   O.co2     1 RES1   0.0000
  8872 O72     53.6346  29.0047  50.1229   O.co2     1 RES1   0.0000
  8873 O73     39.3935  27.1785  51.8886   O.co2     1 RES1   0.0000
  8874 O74     40.8631  35.2433  51.8886   O.co2     1 RES1   0.0000
  8875 O75     40.8631  27.1785  46.2028   O.co2     1 RES1   0.0000
  8876 O76     39.3935  35.2433  46.2028   O.co2     1 RES1   0.0000
  8877 O77     51.8886  21.5587  45.0133   O.co2     1 RES1   0.0000
  8878 O78     51.8886  23.0283  53.0781   O.co2     1 RES1   0.0000
  8879 O79     46.2028  23.0283  45.0133   O.co2     1 RES1   0.0000
  8880 O80     46.2028  21.5587  53.0781   O.co2     1 RES1   0.0000
  8881 O81     45.0133  34.0538  39.3935   O.co2     1 RES1   0.0000
  8882 O82     53.0781  34.0538  40.8631   O.co2     1 RES1   0.0000
  8883 O83     45.0133  28.3680  40.8631   O.co2     1 RES1   0.0000
  8884 O84     53.0781  28.3680  39.3935   O.co2     1 RES1   0.0000
  8885 O87     48.3109  26.3259  42.9712   O.co2     1 RES1   0.0000
  8886 O88     49.7805  18.2611  42.9712   O.co2     1 RES1   0.0000
  8887 O91     42.9712  30.4761  44.1607   O.co2     1 RES1   0.0000
  8888 O92     42.9712  31.9457  36.0959   O.co2     1 RES1   0.0000
  8889 O95     44.1607  25.1364  48.3109   O.co2     1 RES1   0.0000
  8890 O96     36.0959  25.1364  49.7805   O.co2     1 RES1   0.0000
  8891 C1      38.5303  30.1248  36.0976   C.2       1 RES1   0.0000
  8892 C2      41.7263  32.2970  36.0976   C.2       1 RES1   0.0000
  8893 C3      41.7263  30.1248  44.1590   C.2       1 RES1   0.0000
  8894 C4      38.5303  32.2970  44.1590   C.2       1 RES1   0.0000
  8895 C5      36.0976  20.6955  47.9596   C.2       1 RES1   0.0000
  8896 C6      36.0976  23.8915  50.1318   C.2       1 RES1   0.0000
  8897 C7      44.1590  23.8915  47.9596   C.2       1 RES1   0.0000
  8898 C8      44.1590  20.6955  50.1318   C.2       1 RES1   0.0000
  8899 C9      47.9596  18.2628  38.5303   C.2       1 RES1   0.0000
  8900 C10     50.1318  18.2628  41.7263   C.2       1 RES1   0.0000
  8901 C11     47.9596  26.3242  41.7263   C.2       1 RES1   0.0000
  8902 C12     50.1318  26.3242  38.5303   C.2       1 RES1   0.0000
  8903 C13     50.6437  23.3796  53.0764   C.2       1 RES1   0.0000
  8904 C14     47.4477  21.2074  53.0764   C.2       1 RES1   0.0000
  8905 C15     47.4477  23.3796  45.0150   C.2       1 RES1   0.0000
  8906 C16     50.6437  21.2074  45.0150   C.2       1 RES1   0.0000
  8907 C17     53.0764  32.8089  41.2144   C.2       1 RES1   0.0000
  8908 C18     53.0764  29.6129  39.0422   C.2       1 RES1   0.0000
  8909 C19     45.0150  29.6129  41.2144   C.2       1 RES1   0.0000
  8910 C20     45.0150  32.8089  39.0422   C.2       1 RES1   0.0000
  8911 C21     41.2144  35.2416  50.6437   C.2       1 RES1   0.0000
  8912 C22     39.0422  35.2416  47.4477   C.2       1 RES1   0.0000
  8913 C23     41.2144  27.1802  47.4477   C.2       1 RES1   0.0000
  8914 C24     39.0422  27.1802  50.6437   C.2       1 RES1   0.0000
  8915 C25     39.4898  31.3090  36.1030   C.2       1 RES1   0.0000
  8916 C26     40.7668  31.1128  36.1030   C.2       1 RES1   0.0000
  8917 C27     40.7668  31.3090  44.1536   C.2       1 RES1   0.0000
  8918 C28     39.4898  31.1128  44.1536   C.2       1 RES1   0.0000
  8919 C29     36.1030  21.6550  49.1438   C.2       1 RES1   0.0000
  8920 C30     36.1030  22.9320  48.9476   C.2       1 RES1   0.0000
  8921 C31     44.1536  22.9320  49.1438   C.2       1 RES1   0.0000
  8922 C32     44.1536  21.6550  48.9476   C.2       1 RES1   0.0000
  8923 C33     49.1438  18.2682  39.4898   C.2       1 RES1   0.0000
  8924 C34     48.9476  18.2682  40.7668   C.2       1 RES1   0.0000
  8925 C35     49.1438  26.3188  40.7668   C.2       1 RES1   0.0000
  8926 C36     48.9476  26.3188  39.4898   C.2       1 RES1   0.0000
  8927 C37     49.6842  22.1954  53.0710   C.2       1 RES1   0.0000
  8928 C38     48.4072  22.3916  53.0710   C.2       1 RES1   0.0000
  8929 C39     48.4072  22.1954  45.0204   C.2       1 RES1   0.0000
  8930 C40     49.6842  22.3916  45.0204   C.2       1 RES1   0.0000
  8931 C41     53.0710  31.8494  40.0302   C.2       1 RES1   0.0000
  8932 C42     53.0710  30.5724  40.2264   C.2       1 RES1   0.0000
  8933 C43     45.0204  30.5724  40.0302   C.2       1 RES1   0.0000
  8934 C44     45.0204  31.8494  40.2264   C.2       1 RES1   0.0000
  8935 C45     40.0302  35.2362  49.6842   C.2       1 RES1   0.0000
  8936 C46     40.2264  35.2362  48.4072   C.2       1 RES1   0.0000
  8937 C47     40.0302  27.1856  48.4072   C.2       1 RES1   0.0000
  8938 C48     40.2264  27.1856  49.6842   C.2       1 RES1   0.0000
  8939 H1      39.1563  32.1775  36.1048   H         1 RES1   0.0000
  8940 H2      41.1003  30.2443  36.1048   H         1 RES1   0.0000
  8941 H3      41.1003  32.1775  44.1518   H         1 RES1   0.0000
  8942 H4      39.1563  30.2443  44.1518   H         1 RES1   0.0000
  8943 H5      36.1048  21.3215  50.0123   H         1 RES1   0.0000
  8944 H6      36.1048  23.2655  48.0791   H         1 RES1   0.0000
  8945 H7      44.1518  23.2655  50.0123   H         1 RES1   0.0000
  8946 H8      44.1518  21.3215  48.0791   H         1 RES1   0.0000
  8947 H9      50.0123  18.2700  39.1563   H         1 RES1   0.0000
  8948 H10     48.0791  18.2700  41.1003   H         1 RES1   0.0000
  8949 H11     50.0123  26.3170  41.1003   H         1 RES1   0.0000
  8950 H12     48.0791  26.3170  39.1563   H         1 RES1   0.0000
  8951 H13     50.0177  21.3269  53.0692   H         1 RES1   0.0000
  8952 H14     48.0737  23.2601  53.0692   H         1 RES1   0.0000
  8953 H15     48.0737  21.3269  45.0222   H         1 RES1   0.0000
  8954 H16     50.0177  23.2601  45.0222   H         1 RES1   0.0000
  8955 H17     53.0692  32.1829  39.1617   H         1 RES1   0.0000
  8956 H18     53.0692  30.2389  41.0949   H         1 RES1   0.0000
  8957 H19     45.0222  30.2389  39.1617   H         1 RES1   0.0000
  8958 H20     45.0222  32.1829  41.0949   H         1 RES1   0.0000
  8959 H21     39.1617  35.2344  50.0177   H         1 RES1   0.0000
  8960 H22     41.0949  35.2344  48.0737   H         1 RES1   0.0000
  8961 H23     39.1617  27.1874  48.0737   H         1 RES1   0.0000
  8962 H24     41.0949  27.1874  50.0177   H         1 RES1   0.0000
  8963 C49     39.0689  23.8951  35.6696   C.2       1 RES1   0.0000
  8964 C50     41.1877  20.6919  35.6696   C.2       1 RES1   0.0000
  8965 C51     41.1877  23.8951  44.5870   C.2       1 RES1   0.0000
  8966 C52     39.0689  20.6919  44.5870   C.2       1 RES1   0.0000
  8967 C53     35.6696  21.2341  41.7299   C.2       1 RES1   0.0000
  8968 C54     35.6696  23.3529  38.5267   C.2       1 RES1   0.0000
  8969 C55     44.5870  23.3529  41.7299   C.2       1 RES1   0.0000
  8970 C56     44.5870  21.2341  38.5267   C.2       1 RES1   0.0000
  8971 C57     41.7299  17.8348  39.0689   C.2       1 RES1   0.0000
  8972 C58     38.5267  17.8348  41.1877   C.2       1 RES1   0.0000
  8973 C59     41.7299  26.7522  41.1877   C.2       1 RES1   0.0000
  8974 C60     38.5267  26.7522  39.0689   C.2       1 RES1   0.0000
  8975 C61     50.1051  29.6093  53.5044   C.2       1 RES1   0.0000
  8976 C62     47.9863  32.8125  53.5044   C.2       1 RES1   0.0000
  8977 C63     47.9863  29.6093  44.5870   C.2       1 RES1   0.0000
  8978 C64     50.1051  32.8125  44.5870   C.2       1 RES1   0.0000
  8979 C65     53.5044  32.2703  47.4441   C.2       1 RES1   0.0000
  8980 C66     53.5044  30.1515  50.6473   C.2       1 RES1   0.0000
  8981 C67     44.5870  30.1515  47.4441   C.2       1 RES1   0.0000
  8982 C68     44.5870  32.2703  50.6473   C.2       1 RES1   0.0000
  8983 C69     47.4441  35.6696  50.1051   C.2       1 RES1   0.0000
  8984 C70     50.6473  35.6696  47.9863   C.2       1 RES1   0.0000
  8985 C71     47.4441  26.7522  47.9863   C.2       1 RES1   0.0000
  8986 C72     50.6473  26.7522  50.1051   C.2       1 RES1   0.0000
  8987 C73     40.2478  22.9445  35.6714   C.2       1 RES1   0.0000
  8988 C74     40.0088  21.6425  35.6714   C.2       1 RES1   0.0000
  8989 C75     40.0088  22.9445  44.5852   C.2       1 RES1   0.0000
  8990 C76     40.2478  21.6425  44.5852   C.2       1 RES1   0.0000
  8991 C77     35.6714  22.4130  40.7793   C.2       1 RES1   0.0000
  8992 C78     35.6714  22.1740  39.4773   C.2       1 RES1   0.0000
  8993 C79     44.5852  22.1740  40.7793   C.2       1 RES1   0.0000
  8994 C80     44.5852  22.4130  39.4773   C.2       1 RES1   0.0000
  8995 C81     40.7793  17.8366  40.2478   C.2       1 RES1   0.0000
  8996 C82     39.4773  17.8366  40.0088   C.2       1 RES1   0.0000
  8997 C83     40.7793  26.7504  40.0088   C.2       1 RES1   0.0000
  8998 C84     39.4773  26.7504  40.2478   C.2       1 RES1   0.0000
  8999 C85     48.9262  30.5599  53.5026   C.2       1 RES1   0.0000
  9000 C86     49.1652  31.8619  53.5026   C.2       1 RES1   0.0000
  9001 C87     49.1652  30.5599  44.5888   C.2       1 RES1   0.0000
  9002 C88     48.9262  31.8619  44.5888   C.2       1 RES1   0.0000
  9003 C89     53.5026  31.0914  48.3947   C.2       1 RES1   0.0000
  9004 C90     53.5026  31.3304  49.6967   C.2       1 RES1   0.0000
  9005 C91     44.5888  31.3304  48.3947   C.2       1 RES1   0.0000
  9006 C92     44.5888  31.0914  49.6967   C.2       1 RES1   0.0000
  9007 C93     48.3947  35.6678  48.9262   C.2       1 RES1   0.0000
  9008 C94     49.6967  35.6678  49.1652   C.2       1 RES1   0.0000
  9009 C95     48.3947  26.7540  49.1652   C.2       1 RES1   0.0000
  9010 C96     49.6967  26.7540  48.9262   C.2       1 RES1   0.0000
  9011 H25     41.1199  23.2673  35.6714   H         1 RES1   0.0000
  9012 H26     39.1367  21.3197  35.6714   H         1 RES1   0.0000
  9013 H27     39.1367  23.2673  44.5852   H         1 RES1   0.0000
  9014 H28     41.1199  21.3197  44.5852   H         1 RES1   0.0000
  9015 H29     35.6714  23.2851  41.1021   H         1 RES1   0.0000
  9016 H30     35.6714  21.3019  39.1545   H         1 RES1   0.0000
  9017 H31     44.5852  21.3019  41.1021   H         1 RES1   0.0000
  9018 H32     44.5852  23.2851  39.1545   H         1 RES1   0.0000
  9019 H33     41.1021  17.8366  41.1199   H         1 RES1   0.0000
  9020 H34     39.1545  17.8366  39.1367   H         1 RES1   0.0000
  9021 H35     41.1021  26.7504  39.1367   H         1 RES1   0.0000
  9022 H36     39.1545  26.7504  41.1199   H         1 RES1   0.0000
  9023 H37     48.0541  30.2371  53.5026   H         1 RES1   0.0000
  9024 H38     50.0373  32.1847  53.5026   H         1 RES1   0.0000
  9025 H39     50.0373  30.2371  44.5888   H         1 RES1   0.0000
  9026 H40     48.0541  32.1847  44.5888   H         1 RES1   0.0000
  9027 H41     53.5026  30.2193  48.0719   H         1 RES1   0.0000
  9028 H42     53.5026  32.2025  50.0195   H         1 RES1   0.0000
  9029 H43     44.5888  32.2025  48.0719   H         1 RES1   0.0000
  9030 H44     44.5888  30.2193  50.0195   H         1 RES1   0.0000
  9031 H45     48.0719  35.6678  48.0541   H         1 RES1   0.0000
  9032 H46     50.0195  35.6678  50.0373   H         1 RES1   0.0000
  9033 H47     48.0719  26.7540  50.0373   H         1 RES1   0.0000
  9034 H48     50.0195  26.7540  48.0541   H         1 RES1   0.0000
  9035 O97     37.0340  28.3877  52.3505   O.3       1 RES1   0.0000
  9036 O98     43.2226  34.0341  52.3505   O.3       1 RES1   0.0000
  9037 O99     43.2226  28.3877  45.7409   O.3       1 RES1   0.0000
  9038 O101    52.3505  19.1992  46.2225   O.3       1 RES1   0.0000
  9039 O102    52.3505  25.3878  51.8689   O.3       1 RES1   0.0000
  9040 O103    45.7409  25.3878  46.2225   O.3       1 RES1   0.0000
  9041 O105    46.2225  34.5157  37.0340   O.3       1 RES1   0.0000
  9042 O106    51.8689  34.5157  43.2226   O.3       1 RES1   0.0000
  9043 O107    46.2225  27.9061  43.2226   O.3       1 RES1   0.0000
  9044 O111    45.9514  25.1167  43.4331   O.3       1 RES1   0.0000
  9045 O112    52.1400  19.4703  43.4331   O.3       1 RES1   0.0000
  9046 O115    43.4331  28.1166  42.9515   O.3       1 RES1   0.0000
  9047 O116    43.4331  34.3052  37.3051   O.3       1 RES1   0.0000
  9048 O119    42.9515  25.5983  45.9514   O.3       1 RES1   0.0000
  9049 O120    37.3051  25.5983  52.1400   O.3       1 RES1   0.0000
  9050 O123    43.5240  25.6892  43.5240   O.3       1 RES1   0.0000
  9051 O125    52.4414  27.8152  52.4414   O.3       1 RES1   0.0000
  9052 O126    45.6500  34.6066  52.4414   O.3       1 RES1   0.0000
  9053 O127    45.6500  27.8152  45.6500   O.3       1 RES1   0.0000
  9054 O128    52.4414  34.6066  45.6500   O.3       1 RES1   0.0000
  9055 O129    36.7326  27.9757  52.6198   O.3       1 RES1   0.0000
  9056 O130    43.5240  34.4461  52.6198   O.3       1 RES1   0.0000
  9057 O131    43.5240  27.9757  45.4716   O.3       1 RES1   0.0000
  9058 O133    52.6198  18.8978  45.8105   O.3       1 RES1   0.0000
  9059 O134    52.6198  25.6892  52.2809   O.3       1 RES1   0.0000
  9060 O135    45.4716  25.6892  45.8105   O.3       1 RES1   0.0000
  9061 O137    45.8105  34.7850  36.7326   O.3       1 RES1   0.0000
  9062 O138    52.2809  34.7850  43.5240   O.3       1 RES1   0.0000
  9063 O139    45.8105  27.6368  43.5240   O.3       1 RES1   0.0000
  9064 O143    45.6500  25.5287  43.7024   O.3       1 RES1   0.0000
  9065 O144    52.4414  19.0583  43.7024   O.3       1 RES1   0.0000
  9066 O147    43.7024  27.8152  43.3635   O.3       1 RES1   0.0000
  9067 O148    43.7024  34.6066  36.8931   O.3       1 RES1   0.0000
  9068 O151    43.3635  25.8676  45.6500   O.3       1 RES1   0.0000
  9069 O152    36.8931  25.8676  52.4414   O.3       1 RES1   0.0000
  9070 O155    43.1870  25.3522  43.1870   O.3       1 RES1   0.0000
  9071 O157    52.1044  28.1522  52.1044   O.3       1 RES1   0.0000
  9072 O158    45.9870  34.2696  52.1044   O.3       1 RES1   0.0000
  9073 O159    45.9870  28.1522  45.9870   O.3       1 RES1   0.0000
  9074 O160    52.1044  34.2696  45.9870   O.3       1 RES1   0.0000
  9075 Zr1     38.1281  26.9507  53.7163   Zr        1 RES1   0.0000
  9076 Zr1     55.9629  26.9507  35.8815   Zr        1 RES1   0.0000
  9077 Zr2     42.1285  35.4711  53.7163   Zr        1 RES1   0.0000
  9078 Zr4     55.9629  35.4711  44.3751   Zr        1 RES1   0.0000
  9079 Zr5     53.7163  20.2933  44.7855   Zr        1 RES1   0.0000
  9080 Zr6     53.7163  24.2937  53.3059   Zr        1 RES1   0.0000
  9081 Zr8     44.3751  38.1281  53.3059   Zr        1 RES1   0.0000
  9082 Zr9     44.7855  18.0467  55.9629   Zr        1 RES1   0.0000
  9083 Zr9     44.7855  35.8815  38.1281   Zr        1 RES1   0.0000
  9084 Zr10    53.3059  35.8815  42.1285   Zr        1 RES1   0.0000
  9085 Zr12    53.3059  26.5403  55.9629   Zr        1 RES1   0.0000
  9086 Zr14    47.0455  35.8681  53.2925   Zr        1 RES1   0.0000
  9087 Zr16    51.0459  35.8681  44.7989   Zr        1 RES1   0.0000
  9088 Zr18    53.2925  29.2107  53.7029   Zr        1 RES1   0.0000
  9089 Zr20    44.7989  33.2111  53.7029   Zr        1 RES1   0.0000
  9090 Zr22    53.7029  35.4577  47.0455   Zr        1 RES1   0.0000
  9091 Zr24    53.7029  26.9641  51.0459   Zr        1 RES1   0.0000
  9092 O2      40.8595  37.3015  35.8123   O.co2     1 RES1   0.0000
  9093 O4      39.3971  37.3015  44.4443   O.co2     1 RES1   0.0000
  9094 O6      35.8123  23.0247  55.1363   O.2       1 RES1   0.0000
  9095 O8      44.4443  21.5623  55.1363   O.2       1 RES1   0.0000
  9096 O10     55.1363  17.9775  40.8595   O.2       1 RES1   0.0000
  9097 O12     55.1363  26.6095  39.3971   O.2       1 RES1   0.0000
  9098 O50     41.2055  35.5394  37.9221   O.co2     1 RES1   0.0000
  9099 O52     39.0511  35.5394  42.3345   O.co2     1 RES1   0.0000
  9100 O54     37.9221  23.3707  53.3742   O.2       1 RES1   0.0000
  9101 O56     42.3345  21.2163  53.3742   O.2       1 RES1   0.0000
  9102 O58     53.3742  20.0873  41.2055   O.2       1 RES1   0.0000
  9103 O60     53.3742  24.4997  39.0511   O.2       1 RES1   0.0000
  9104 O85     49.7805  26.3259  55.1202   O.2       1 RES1   0.0000
  9105 O86     48.3109  18.2611  55.1202   O.2       1 RES1   0.0000
  9106 O89     55.1202  31.9457  44.1607   O.2       1 RES1   0.0000
  9107 O90     55.1202  30.4761  36.0959   O.2       1 RES1   0.0000
  9108 O93     44.1607  37.2854  49.7805   O.co2     1 RES1   0.0000
  9109 O94     36.0959  37.2854  48.3109   O.co2     1 RES1   0.0000
  9110 O97     54.8688  28.3877  34.5157   O.3       1 RES1   0.0000
  9111 O100    54.8688  34.0341  45.7409   O.3       1 RES1   0.0000
  9112 O104    45.7409  37.0340  51.8689   O.3       1 RES1   0.0000
  9113 O105    46.2225  16.6809  54.8688   O.3       1 RES1   0.0000
  9114 O108    51.8689  27.9061  54.8688   O.3       1 RES1   0.0000
  9115 O109    52.1400  25.1167  54.6583   O.3       1 RES1   0.0000
  9116 O110    45.9514  19.4703  54.6583   O.3       1 RES1   0.0000
  9117 O113    54.6583  34.3052  42.9515   O.3       1 RES1   0.0000
  9118 O114    54.6583  28.1166  37.3051   O.3       1 RES1   0.0000
  9119 O117    42.9515  36.8235  52.1400   O.3       1 RES1   0.0000
  9120 O118    37.3051  36.8235  45.9514   O.3       1 RES1   0.0000
  9121 O121    36.7326  25.6892  54.5674   O.3       1 RES1   0.0000
  9122 O121    54.5674  25.6892  36.7326   O.3       1 RES1   0.0000
  9123 O122    43.5240  18.8978  54.5674   O.3       1 RES1   0.0000
  9124 O122    43.5240  36.7326  36.7326   O.3       1 RES1   0.0000
  9125 O124    54.5674  18.8978  43.5240   O.3       1 RES1   0.0000
  9126 O129    54.5674  27.9757  34.7850   O.3       1 RES1   0.0000
  9127 O132    54.5674  34.4461  45.4716   O.3       1 RES1   0.0000
  9128 O136    45.4716  36.7326  52.2809   O.3       1 RES1   0.0000
  9129 O137    45.8105  16.9502  54.5674   O.3       1 RES1   0.0000
  9130 O140    52.2809  27.6368  54.5674   O.3       1 RES1   0.0000
  9131 O141    52.4414  25.5287  54.3890   O.3       1 RES1   0.0000
  9132 O142    45.6500  19.0583  54.3890   O.3       1 RES1   0.0000
  9133 O145    54.3890  34.6066  43.3635   O.3       1 RES1   0.0000
  9134 O146    54.3890  27.8152  36.8931   O.3       1 RES1   0.0000
  9135 O149    43.3635  36.5542  52.4414   O.3       1 RES1   0.0000
  9136 O150    36.8931  36.5542  45.6500   O.3       1 RES1   0.0000
  9137 O153    37.0696  25.3522  54.9044   O.3       1 RES1   0.0000
  9138 O153    54.9044  25.3522  37.0696   O.3       1 RES1   0.0000
  9139 O154    43.1870  19.2348  54.9044   O.3       1 RES1   0.0000
  9140 O154    43.1870  37.0696  37.0696   O.3       1 RES1   0.0000
  9141 O156    54.9044  19.2348  43.1870   O.3       1 RES1   0.0000
  9142 Zr2     42.1285  53.3059   0.2119   Zr        1 RES1   0.0000
  9143 Zr3     42.1285  44.7855   8.7055   Zr        1 RES1   0.0000
  9144 Zr7     44.3751  42.1285   9.1159   Zr        1 RES1   0.0000
  9145 Zr11    44.7855  44.3751   6.4589   Zr        1 RES1   0.0000
  9146 Zr12    53.3059  44.3751   2.4585   Zr        1 RES1   0.0000
  9147 Zr13    51.0459  44.3885  17.6229   Zr        1 RES1   0.0000
  9148 Zr15    47.0455  44.3885   9.1293   Zr        1 RES1   0.0000
  9149 Zr17    53.2925  51.0459   8.7189   Zr        1 RES1   0.0000
  9150 Zr18    53.2925  47.0455   0.1985   Zr        1 RES1   0.0000
  9151 Zr19    44.7989  47.0455   8.7189   Zr        1 RES1   0.0000
  9152 Zr20    44.7989  51.0459   0.1985   Zr        1 RES1   0.0000
  9153 Zr21    44.3885  53.2925  15.3763   Zr        1 RES1   0.0000
  9154 Zr23    44.3885  44.7989  11.3759   Zr        1 RES1   0.0000
  9155 O1      39.3971  42.9551   0.1427   O.co2     1 RES1   0.0000
  9156 O3      40.8595  42.9551   8.7747   O.co2     1 RES1   0.0000
  9157 O5      35.8123  39.3971   7.2855   O.co2     1 RES1   0.0000
  9158 O6      35.8123  40.8595   1.6319   O.co2     1 RES1   0.0000
  9159 O7      44.4443  40.8595   7.2855   O.co2     1 RES1   0.0000
  9160 O8      44.4443  39.3971   1.6319   O.co2     1 RES1   0.0000
  9161 O9      42.9551  35.8123   3.7275   O.co2     1 RES1   0.0000
  9162 O11     42.9551  44.4443   5.1899   O.co2     1 RES1   0.0000
  9163 O13     49.7769  46.2189  17.6921   O.co2     1 RES1   0.0000
  9164 O14     48.3145  51.8725  17.6921   O.co2     1 RES1   0.0000
  9165 O15     48.3145  46.2189   9.0601   O.co2     1 RES1   0.0000
  9166 O16     49.7769  51.8725   9.0601   O.co2     1 RES1   0.0000
  9167 O17     53.3617  49.7769  10.5493   O.co2     1 RES1   0.0000
  9168 O18     53.3617  48.3145  16.2029   O.co2     1 RES1   0.0000
  9169 O19     44.7297  48.3145  10.5493   O.co2     1 RES1   0.0000
  9170 O20     44.7297  49.7769  16.2029   O.co2     1 RES1   0.0000
  9171 O21     46.2189  53.3617  14.1073   O.co2     1 RES1   0.0000
  9172 O22     51.8725  53.3617  12.6449   O.co2     1 RES1   0.0000
  9173 O23     46.2189  44.7297  12.6449   O.co2     1 RES1   0.0000
  9174 O24     51.8725  44.7297  14.1073   O.co2     1 RES1   0.0000
  9175 O25     39.0653  46.8092   0.4387   O.co2     1 RES1   0.0000
  9176 O26     41.1913  51.2822   0.4387   O.co2     1 RES1   0.0000
  9177 O27     41.1913  46.8092   8.4787   O.co2     1 RES1   0.0000
  9178 O28     39.0653  51.2822   8.4787   O.co2     1 RES1   0.0000
  9179 O29     36.1083  39.0653  11.1396   O.co2     1 RES1   0.0000
  9180 O30     36.1083  41.1913  15.6126   O.co2     1 RES1   0.0000
  9181 O31     44.1483  41.1913  11.1396   O.co2     1 RES1   0.0000
  9182 O32     44.1483  39.0653  15.6126   O.co2     1 RES1   0.0000
  9183 O33     46.8092  36.1083   3.3957   O.co2     1 RES1   0.0000
  9184 O34     51.2822  36.1083   5.5217   O.co2     1 RES1   0.0000
  9185 O35     46.8092  44.1483   5.5217   O.co2     1 RES1   0.0000
  9186 O36     51.2822  44.1483   3.3957   O.co2     1 RES1   0.0000
  9187 O37     50.1087  42.3648  17.3961   O.co2     1 RES1   0.0000
  9188 O38     47.9827  37.8918  17.3961   O.co2     1 RES1   0.0000
  9189 O39     47.9827  42.3648   9.3561   O.co2     1 RES1   0.0000
  9190 O40     50.1087  37.8918   9.3561   O.co2     1 RES1   0.0000
  9191 O41     53.0657  50.1087   6.6952   O.co2     1 RES1   0.0000
  9192 O42     53.0657  47.9827   2.2222   O.co2     1 RES1   0.0000
  9193 O43     45.0257  47.9827   6.6952   O.co2     1 RES1   0.0000
  9194 O44     45.0257  50.1087   2.2222   O.co2     1 RES1   0.0000
  9195 O45     42.3648  53.0657  14.4391   O.co2     1 RES1   0.0000
  9196 O46     37.8918  53.0657  12.3131   O.co2     1 RES1   0.0000
  9197 O47     42.3648  45.0257  12.3131   O.co2     1 RES1   0.0000
  9198 O48     37.8918  45.0257  14.4391   O.co2     1 RES1   0.0000
  9199 O49     39.0511  44.7172   2.2525   O.co2     1 RES1   0.0000
  9200 O51     41.2055  44.7172   6.6649   O.co2     1 RES1   0.0000
  9201 O53     37.9221  39.0511   9.0476   O.co2     1 RES1   0.0000
  9202 O54     37.9221  41.2055  -0.1302   O.co2     1 RES1   0.0000
  9203 O55     42.3345  41.2055   9.0476   O.co2     1 RES1   0.0000
  9204 O56     42.3345  39.0511  -0.1302   O.co2     1 RES1   0.0000
  9205 O57     44.7172  37.9221   3.3815   O.co2     1 RES1   0.0000
  9206 O59     44.7172  42.3345   5.5359   O.co2     1 RES1   0.0000
  9207 O61     50.1229  44.4568  15.5823   O.co2     1 RES1   0.0000
  9208 O62     47.9685  53.6346  15.5823   O.co2     1 RES1   0.0000
  9209 O63     47.9685  44.4568  11.1699   O.co2     1 RES1   0.0000
  9210 O64     50.1229  53.6346  11.1699   O.co2     1 RES1   0.0000
  9211 O65     51.2519  50.1229   8.7872   O.co2     1 RES1   0.0000
  9212 O66     51.2519  47.9685  17.9650   O.co2     1 RES1   0.0000
  9213 O67     46.8395  47.9685   8.7872   O.co2     1 RES1   0.0000
  9214 O68     46.8395  50.1229  17.9650   O.co2     1 RES1   0.0000
  9215 O69     44.4568  51.2519  14.4533   O.co2     1 RES1   0.0000
  9216 O70     53.6346  51.2519  12.2989   O.co2     1 RES1   0.0000
  9217 O71     44.4568  46.8395  12.2989   O.co2     1 RES1   0.0000
  9218 O72     53.6346  46.8395  14.4533   O.co2     1 RES1   0.0000
  9219 O73     39.3935  45.0133  16.2190   O.co2     1 RES1   0.0000
  9220 O74     40.8631  53.0781  16.2190   O.co2     1 RES1   0.0000
  9221 O75     40.8631  45.0133  10.5332   O.co2     1 RES1   0.0000
  9222 O76     39.3935  53.0781  10.5332   O.co2     1 RES1   0.0000
  9223 O77     51.8886  39.3935   9.3437   O.co2     1 RES1   0.0000
  9224 O78     51.8886  40.8631  17.4085   O.co2     1 RES1   0.0000
  9225 O79     46.2028  40.8631   9.3437   O.co2     1 RES1   0.0000
  9226 O80     46.2028  39.3935  17.4085   O.co2     1 RES1   0.0000
  9227 O81     45.0133  51.8886   3.7239   O.co2     1 RES1   0.0000
  9228 O82     53.0781  51.8886   5.1935   O.co2     1 RES1   0.0000
  9229 O83     45.0133  46.2028   5.1935   O.co2     1 RES1   0.0000
  9230 O84     53.0781  46.2028   3.7239   O.co2     1 RES1   0.0000
  9231 O85     49.7805  44.1607   1.6158   O.co2     1 RES1   0.0000
  9232 O86     48.3109  36.0959   1.6158   O.co2     1 RES1   0.0000
  9233 O87     48.3109  44.1607   7.3016   O.co2     1 RES1   0.0000
  9234 O88     49.7805  36.0959   7.3016   O.co2     1 RES1   0.0000
  9235 O91     42.9712  48.3109   8.4911   O.co2     1 RES1   0.0000
  9236 O92     42.9712  49.7805   0.4263   O.co2     1 RES1   0.0000
  9237 O95     44.1607  42.9712  12.6413   O.co2     1 RES1   0.0000
  9238 O96     36.0959  42.9712  14.1109   O.co2     1 RES1   0.0000
  9239 C1      38.5303  47.9596   0.4280   C.2       1 RES1   0.0000
  9240 C2      41.7263  50.1318   0.4280   C.2       1 RES1   0.0000
  9241 C3      41.7263  47.9596   8.4894   C.2       1 RES1   0.0000
  9242 C4      38.5303  50.1318   8.4894   C.2       1 RES1   0.0000
  9243 C5      36.0976  38.5303  12.2900   C.2       1 RES1   0.0000
  9244 C6      36.0976  41.7263  14.4622   C.2       1 RES1   0.0000
  9245 C7      44.1590  41.7263  12.2900   C.2       1 RES1   0.0000
  9246 C8      44.1590  38.5303  14.4622   C.2       1 RES1   0.0000
  9247 C9      47.9596  36.0976   2.8607   C.2       1 RES1   0.0000
  9248 C10     50.1318  36.0976   6.0567   C.2       1 RES1   0.0000
  9249 C11     47.9596  44.1590   6.0567   C.2       1 RES1   0.0000
  9250 C12     50.1318  44.1590   2.8607   C.2       1 RES1   0.0000
  9251 C13     50.6437  41.2144  17.4068   C.2       1 RES1   0.0000
  9252 C14     47.4477  39.0422  17.4068   C.2       1 RES1   0.0000
  9253 C15     47.4477  41.2144   9.3454   C.2       1 RES1   0.0000
  9254 C16     50.6437  39.0422   9.3454   C.2       1 RES1   0.0000
  9255 C17     53.0764  50.6437   5.5448   C.2       1 RES1   0.0000
  9256 C18     53.0764  47.4477   3.3726   C.2       1 RES1   0.0000
  9257 C19     45.0150  47.4477   5.5448   C.2       1 RES1   0.0000
  9258 C20     45.0150  50.6437   3.3726   C.2       1 RES1   0.0000
  9259 C21     41.2144  53.0764  14.9741   C.2       1 RES1   0.0000
  9260 C22     39.0422  53.0764  11.7781   C.2       1 RES1   0.0000
  9261 C23     41.2144  45.0150  11.7781   C.2       1 RES1   0.0000
  9262 C24     39.0422  45.0150  14.9741   C.2       1 RES1   0.0000
  9263 C25     39.4898  49.1438   0.4334   C.2       1 RES1   0.0000
  9264 C26     40.7668  48.9476   0.4334   C.2       1 RES1   0.0000
  9265 C27     40.7668  49.1438   8.4840   C.2       1 RES1   0.0000
  9266 C28     39.4898  48.9476   8.4840   C.2       1 RES1   0.0000
  9267 C29     36.1030  39.4898  13.4742   C.2       1 RES1   0.0000
  9268 C30     36.1030  40.7668  13.2780   C.2       1 RES1   0.0000
  9269 C31     44.1536  40.7668  13.4742   C.2       1 RES1   0.0000
  9270 C32     44.1536  39.4898  13.2780   C.2       1 RES1   0.0000
  9271 C33     49.1438  36.1030   3.8202   C.2       1 RES1   0.0000
  9272 C34     48.9476  36.1030   5.0972   C.2       1 RES1   0.0000
  9273 C35     49.1438  44.1536   5.0972   C.2       1 RES1   0.0000
  9274 C36     48.9476  44.1536   3.8202   C.2       1 RES1   0.0000
  9275 C37     49.6842  40.0302  17.4014   C.2       1 RES1   0.0000
  9276 C38     48.4072  40.2264  17.4014   C.2       1 RES1   0.0000
  9277 C39     48.4072  40.0302   9.3508   C.2       1 RES1   0.0000
  9278 C40     49.6842  40.2264   9.3508   C.2       1 RES1   0.0000
  9279 C41     53.0710  49.6842   4.3606   C.2       1 RES1   0.0000
  9280 C42     53.0710  48.4072   4.5568   C.2       1 RES1   0.0000
  9281 C43     45.0204  48.4072   4.3606   C.2       1 RES1   0.0000
  9282 C44     45.0204  49.6842   4.5568   C.2       1 RES1   0.0000
  9283 C45     40.0302  53.0710  14.0146   C.2       1 RES1   0.0000
  9284 C46     40.2264  53.0710  12.7376   C.2       1 RES1   0.0000
  9285 C47     40.0302  45.0204  12.7376   C.2       1 RES1   0.0000
  9286 C48     40.2264  45.0204  14.0146   C.2       1 RES1   0.0000
  9287 H1      39.1563  50.0123   0.4352   H         1 RES1   0.0000
  9288 H2      41.1003  48.0791   0.4352   H         1 RES1   0.0000
  9289 H3      41.1003  50.0123   8.4822   H         1 RES1   0.0000
  9290 H4      39.1563  48.0791   8.4822   H         1 RES1   0.0000
  9291 H5      36.1048  39.1563  14.3427   H         1 RES1   0.0000
  9292 H6      36.1048  41.1003  12.4095   H         1 RES1   0.0000
  9293 H7      44.1518  41.1003  14.3427   H         1 RES1   0.0000
  9294 H8      44.1518  39.1563  12.4095   H         1 RES1   0.0000
  9295 H9      50.0123  36.1048   3.4867   H         1 RES1   0.0000
  9296 H10     48.0791  36.1048   5.4307   H         1 RES1   0.0000
  9297 H11     50.0123  44.1518   5.4307   H         1 RES1   0.0000
  9298 H12     48.0791  44.1518   3.4867   H         1 RES1   0.0000
  9299 H13     50.0177  39.1617  17.3996   H         1 RES1   0.0000
  9300 H14     48.0737  41.0949  17.3996   H         1 RES1   0.0000
  9301 H15     48.0737  39.1617   9.3526   H         1 RES1   0.0000
  9302 H16     50.0177  41.0949   9.3526   H         1 RES1   0.0000
  9303 H17     53.0692  50.0177   3.4921   H         1 RES1   0.0000
  9304 H18     53.0692  48.0737   5.4253   H         1 RES1   0.0000
  9305 H19     45.0222  48.0737   3.4921   H         1 RES1   0.0000
  9306 H20     45.0222  50.0177   5.4253   H         1 RES1   0.0000
  9307 H21     39.1617  53.0692  14.3481   H         1 RES1   0.0000
  9308 H22     41.0949  53.0692  12.4041   H         1 RES1   0.0000
  9309 H23     39.1617  45.0222  12.4041   H         1 RES1   0.0000
  9310 H24     41.0949  45.0222  14.3481   H         1 RES1   0.0000
  9311 C49     39.0689  41.7299   0.0000   C.2       1 RES1   0.0000
  9312 C50     41.1877  38.5267   0.0000   C.2       1 RES1   0.0000
  9313 C51     41.1877  41.7299   8.9174   C.2       1 RES1   0.0000
  9314 C52     39.0689  38.5267   8.9174   C.2       1 RES1   0.0000
  9315 C53     35.6696  39.0689   6.0603   C.2       1 RES1   0.0000
  9316 C54     35.6696  41.1877   2.8571   C.2       1 RES1   0.0000
  9317 C55     44.5870  41.1877   6.0603   C.2       1 RES1   0.0000
  9318 C56     44.5870  39.0689   2.8571   C.2       1 RES1   0.0000
  9319 C57     41.7299  35.6696   3.3993   C.2       1 RES1   0.0000
  9320 C58     38.5267  35.6696   5.5181   C.2       1 RES1   0.0000
  9321 C59     41.7299  44.5870   5.5181   C.2       1 RES1   0.0000
  9322 C60     38.5267  44.5870   3.3993   C.2       1 RES1   0.0000
  9323 C61     50.1051  47.4441  17.8348   C.2       1 RES1   0.0000
  9324 C62     47.9863  50.6473  17.8348   C.2       1 RES1   0.0000
  9325 C63     47.9863  47.4441   8.9174   C.2       1 RES1   0.0000
  9326 C64     50.1051  50.6473   8.9174   C.2       1 RES1   0.0000
  9327 C65     53.5044  50.1051  11.7745   C.2       1 RES1   0.0000
  9328 C66     53.5044  47.9863  14.9777   C.2       1 RES1   0.0000
  9329 C67     44.5870  47.9863  11.7745   C.2       1 RES1   0.0000
  9330 C68     44.5870  50.1051  14.9777   C.2       1 RES1   0.0000
  9331 C69     47.4441  53.5044  14.4355   C.2       1 RES1   0.0000
  9332 C70     50.6473  53.5044  12.3167   C.2       1 RES1   0.0000
  9333 C71     47.4441  44.5870  12.3167   C.2       1 RES1   0.0000
  9334 C72     50.6473  44.5870  14.4355   C.2       1 RES1   0.0000
  9335 C73     40.2478  40.7793   0.0018   C.2       1 RES1   0.0000
  9336 C74     40.0088  39.4773   0.0018   C.2       1 RES1   0.0000
  9337 C75     40.0088  40.7793   8.9156   C.2       1 RES1   0.0000
  9338 C76     40.2478  39.4773   8.9156   C.2       1 RES1   0.0000
  9339 C77     35.6714  40.2478   5.1097   C.2       1 RES1   0.0000
  9340 C78     35.6714  40.0088   3.8077   C.2       1 RES1   0.0000
  9341 C79     44.5852  40.0088   5.1097   C.2       1 RES1   0.0000
  9342 C80     44.5852  40.2478   3.8077   C.2       1 RES1   0.0000
  9343 C81     40.7793  35.6714   4.5782   C.2       1 RES1   0.0000
  9344 C82     39.4773  35.6714   4.3392   C.2       1 RES1   0.0000
  9345 C83     40.7793  44.5852   4.3392   C.2       1 RES1   0.0000
  9346 C84     39.4773  44.5852   4.5782   C.2       1 RES1   0.0000
  9347 C85     48.9262  48.3947  17.8330   C.2       1 RES1   0.0000
  9348 C86     49.1652  49.6967  17.8330   C.2       1 RES1   0.0000
  9349 C87     49.1652  48.3947   8.9192   C.2       1 RES1   0.0000
  9350 C88     48.9262  49.6967   8.9192   C.2       1 RES1   0.0000
  9351 C89     53.5026  48.9262  12.7251   C.2       1 RES1   0.0000
  9352 C90     53.5026  49.1652  14.0271   C.2       1 RES1   0.0000
  9353 C91     44.5888  49.1652  12.7251   C.2       1 RES1   0.0000
  9354 C92     44.5888  48.9262  14.0271   C.2       1 RES1   0.0000
  9355 C93     48.3947  53.5026  13.2566   C.2       1 RES1   0.0000
  9356 C94     49.6967  53.5026  13.4956   C.2       1 RES1   0.0000
  9357 C95     48.3947  44.5888  13.4956   C.2       1 RES1   0.0000
  9358 C96     49.6967  44.5888  13.2566   C.2       1 RES1   0.0000
  9359 H25     41.1199  41.1021   0.0018   H         1 RES1   0.0000
  9360 H26     39.1367  39.1545   0.0018   H         1 RES1   0.0000
  9361 H27     39.1367  41.1021   8.9156   H         1 RES1   0.0000
  9362 H28     41.1199  39.1545   8.9156   H         1 RES1   0.0000
  9363 H29     35.6714  41.1199   5.4325   H         1 RES1   0.0000
  9364 H30     35.6714  39.1367   3.4849   H         1 RES1   0.0000
  9365 H31     44.5852  39.1367   5.4325   H         1 RES1   0.0000
  9366 H32     44.5852  41.1199   3.4849   H         1 RES1   0.0000
  9367 H33     41.1021  35.6714   5.4503   H         1 RES1   0.0000
  9368 H34     39.1545  35.6714   3.4671   H         1 RES1   0.0000
  9369 H35     41.1021  44.5852   3.4671   H         1 RES1   0.0000
  9370 H36     39.1545  44.5852   5.4503   H         1 RES1   0.0000
  9371 H37     48.0541  48.0719  17.8330   H         1 RES1   0.0000
  9372 H38     50.0373  50.0195  17.8330   H         1 RES1   0.0000
  9373 H39     50.0373  48.0719   8.9192   H         1 RES1   0.0000
  9374 H40     48.0541  50.0195   8.9192   H         1 RES1   0.0000
  9375 H41     53.5026  48.0541  12.4023   H         1 RES1   0.0000
  9376 H42     53.5026  50.0373  14.3499   H         1 RES1   0.0000
  9377 H43     44.5888  50.0373  12.4023   H         1 RES1   0.0000
  9378 H44     44.5888  48.0541  14.3499   H         1 RES1   0.0000
  9379 H45     48.0719  53.5026  12.3845   H         1 RES1   0.0000
  9380 H46     50.0195  53.5026  14.3677   H         1 RES1   0.0000
  9381 H47     48.0719  44.5888  14.3677   H         1 RES1   0.0000
  9382 H48     50.0195  44.5888  12.3845   H         1 RES1   0.0000
  9383 O98     43.2226  51.8689  16.6809   O.3       1 RES1   0.0000
  9384 O99     43.2226  46.2225  10.0713   O.3       1 RES1   0.0000
  9385 O101    52.3505  37.0340  10.5529   O.3       1 RES1   0.0000
  9386 O102    52.3505  43.2226  16.1993   O.3       1 RES1   0.0000
  9387 O103    45.7409  43.2226  10.5529   O.3       1 RES1   0.0000
  9388 O105    46.2225  52.3505   1.3644   O.3       1 RES1   0.0000
  9389 O106    51.8689  52.3505   7.5530   O.3       1 RES1   0.0000
  9390 O107    46.2225  45.7409   7.5530   O.3       1 RES1   0.0000
  9391 O108    51.8689  45.7409   1.3644   O.3       1 RES1   0.0000
  9392 O109    52.1400  42.9515   1.1539   O.3       1 RES1   0.0000
  9393 O110    45.9514  37.3051   1.1539   O.3       1 RES1   0.0000
  9394 O111    45.9514  42.9515   7.7635   O.3       1 RES1   0.0000
  9395 O112    52.1400  37.3051   7.7635   O.3       1 RES1   0.0000
  9396 O115    43.4331  45.9514   7.2819   O.3       1 RES1   0.0000
  9397 O116    43.4331  52.1400   1.6355   O.3       1 RES1   0.0000
  9398 O119    42.9515  43.4331  10.2818   O.3       1 RES1   0.0000
  9399 O120    37.3051  43.4331  16.4704   O.3       1 RES1   0.0000
  9400 O123    43.5240  43.5240   7.8544   O.3       1 RES1   0.0000
  9401 O125    52.4414  45.6500  16.7718   O.3       1 RES1   0.0000
  9402 O126    45.6500  52.4414  16.7718   O.3       1 RES1   0.0000
  9403 O127    45.6500  45.6500   9.9804   O.3       1 RES1   0.0000
  9404 O128    52.4414  52.4414   9.9804   O.3       1 RES1   0.0000
  9405 O130    43.5240  52.2809  16.9502   O.3       1 RES1   0.0000
  9406 O131    43.5240  45.8105   9.8020   O.3       1 RES1   0.0000
  9407 O133    52.6198  36.7326  10.1409   O.3       1 RES1   0.0000
  9408 O134    52.6198  43.5240  16.6113   O.3       1 RES1   0.0000
  9409 O135    45.4716  43.5240  10.1409   O.3       1 RES1   0.0000
  9410 O137    45.8105  52.6198   1.0630   O.3       1 RES1   0.0000
  9411 O138    52.2809  52.6198   7.8544   O.3       1 RES1   0.0000
  9412 O139    45.8105  45.4716   7.8544   O.3       1 RES1   0.0000
  9413 O140    52.2809  45.4716   1.0630   O.3       1 RES1   0.0000
  9414 O141    52.4414  43.3635   0.8846   O.3       1 RES1   0.0000
  9415 O142    45.6500  36.8931   0.8846   O.3       1 RES1   0.0000
  9416 O143    45.6500  43.3635   8.0328   O.3       1 RES1   0.0000
  9417 O144    52.4414  36.8931   8.0328   O.3       1 RES1   0.0000
  9418 O147    43.7024  45.6500   7.6939   O.3       1 RES1   0.0000
  9419 O148    43.7024  52.4414   1.2235   O.3       1 RES1   0.0000
  9420 O151    43.3635  43.7024   9.9804   O.3       1 RES1   0.0000
  9421 O152    36.8931  43.7024  16.7718   O.3       1 RES1   0.0000
  9422 O155    43.1870  43.1870   7.5174   O.3       1 RES1   0.0000
  9423 O157    52.1044  45.9870  16.4348   O.3       1 RES1   0.0000
  9424 O158    45.9870  52.1044  16.4348   O.3       1 RES1   0.0000
  9425 O159    45.9870  45.9870  10.3174   O.3       1 RES1   0.0000
  9426 O160    52.1044  52.1044  10.3174   O.3       1 RES1   0.0000
  9427 Zr1     55.9629  44.7855   0.2119   Zr        1 RES1   0.0000
  9428 Zr2     42.1285  53.3059  18.0467   Zr        1 RES1   0.0000
  9429 Zr4     55.9629  53.3059   8.7055   Zr        1 RES1   0.0000
  9430 Zr5     35.8815  55.9629   9.1159   Zr        1 RES1   0.0000
  9431 Zr5     53.7163  38.1281   9.1159   Zr        1 RES1   0.0000
  9432 Zr6     53.7163  42.1285  -0.1985   Zr        1 RES1   0.0000
  9433 Zr6     53.7163  42.1285  17.6363   Zr        1 RES1   0.0000
  9434 Zr8     44.3751  55.9629  -0.1985   Zr        1 RES1   0.0000
  9435 Zr8     44.3751  55.9629  17.6363   Zr        1 RES1   0.0000
  9436 Zr9     44.7855  53.7163   2.4585   Zr        1 RES1   0.0000
  9437 Zr10    53.3059  53.7163   6.4589   Zr        1 RES1   0.0000
  9438 Zr12    53.3059  44.3751  20.2933   Zr        1 RES1   0.0000
  9439 Zr13    51.0459  44.3885  -0.2119   Zr        1 RES1   0.0000
  9440 Zr14    47.0455  53.7029  -0.2119   Zr        1 RES1   0.0000
  9441 Zr14    47.0455  53.7029  17.6229   Zr        1 RES1   0.0000
  9442 Zr16    51.0459  53.7029   9.1293   Zr        1 RES1   0.0000
  9443 Zr18    53.2925  47.0455  18.0333   Zr        1 RES1   0.0000
  9444 Zr20    44.7989  51.0459  18.0333   Zr        1 RES1   0.0000
  9445 Zr21    44.3885  53.2925  -2.4585   Zr        1 RES1   0.0000
  9446 Zr22    53.7029  53.2925  11.3759   Zr        1 RES1   0.0000
  9447 Zr24    53.7029  44.7989  -2.4585   Zr        1 RES1   0.0000
  9448 Zr24    53.7029  44.7989  15.3763   Zr        1 RES1   0.0000
  9449 O2      40.8595  55.1363   0.1427   O.2       1 RES1   0.0000
  9450 O4      39.3971  55.1363   8.7747   O.2       1 RES1   0.0000
  9451 O6      35.8123  40.8595  19.4667   O.co2     1 RES1   0.0000
  9452 O8      44.4443  39.3971  19.4667   O.co2     1 RES1   0.0000
  9453 O10     55.1363  35.8123   5.1899   O.2       1 RES1   0.0000
  9454 O12     55.1363  44.4443   3.7275   O.2       1 RES1   0.0000
  9455 O18     53.3617  48.3145  -1.6319   O.2       1 RES1   0.0000
  9456 O20     44.7297  49.7769  -1.6319   O.2       1 RES1   0.0000
  9457 O50     41.2055  53.3742   2.2525   O.2       1 RES1   0.0000
  9458 O52     39.0511  53.3742   6.6649   O.2       1 RES1   0.0000
  9459 O54     37.9221  41.2055  17.7046   O.co2     1 RES1   0.0000
  9460 O56     42.3345  39.0511  17.7046   O.co2     1 RES1   0.0000
  9461 O58     53.3742  37.9221   5.5359   O.2       1 RES1   0.0000
  9462 O60     53.3742  42.3345   3.3815   O.2       1 RES1   0.0000
  9463 O66     51.2519  47.9685   0.1302   O.2       1 RES1   0.0000
  9464 O68     46.8395  50.1229   0.1302   O.2       1 RES1   0.0000
  9465 O73     39.3935  45.0133  -1.6158   O.2       1 RES1   0.0000
  9466 O74     40.8631  53.0781  -1.6158   O.2       1 RES1   0.0000
  9467 O85     49.7805  44.1607  19.4506   O.co2     1 RES1   0.0000
  9468 O86     48.3109  36.0959  19.4506   O.co2     1 RES1   0.0000
  9469 O89     55.1202  49.7805   8.4911   O.2       1 RES1   0.0000
  9470 O90     55.1202  48.3109   0.4263   O.2       1 RES1   0.0000
  9471 O93     44.1607  55.1202  14.1109   O.2       1 RES1   0.0000
  9472 O94     36.0959  55.1202  12.6413   O.2       1 RES1   0.0000
  9473 O97     54.8688  46.2225  -1.1539   O.3       1 RES1   0.0000
  9474 O98     43.2226  51.8689  -1.1539   O.3       1 RES1   0.0000
  9475 O100    54.8688  51.8689  10.0713   O.3       1 RES1   0.0000
  9476 O101    34.5157  54.8688  10.5529   O.3       1 RES1   0.0000
  9477 O104    45.7409  54.8688  16.1993   O.3       1 RES1   0.0000
  9478 O108    51.8689  45.7409  19.1992   O.3       1 RES1   0.0000
  9479 O109    52.1400  42.9515  18.9887   O.3       1 RES1   0.0000
  9480 O110    45.9514  37.3051  18.9887   O.3       1 RES1   0.0000
  9481 O113    54.6583  52.1400   7.2819   O.3       1 RES1   0.0000
  9482 O114    54.6583  45.9514   1.6355   O.3       1 RES1   0.0000
  9483 O117    42.9515  54.6583  -1.3644   O.3       1 RES1   0.0000
  9484 O117    42.9515  54.6583  16.4704   O.3       1 RES1   0.0000
  9485 O118    37.3051  54.6583  10.2818   O.3       1 RES1   0.0000
  9486 O120    37.3051  43.4331  -1.3644   O.3       1 RES1   0.0000
  9487 O121    54.5674  43.5240   1.0630   O.3       1 RES1   0.0000
  9488 O122    43.5240  54.5674   1.0630   O.3       1 RES1   0.0000
  9489 O124    36.7326  54.5674   7.8544   O.3       1 RES1   0.0000
  9490 O124    54.5674  36.7326   7.8544   O.3       1 RES1   0.0000
  9491 O125    52.4414  45.6500  -1.0630   O.3       1 RES1   0.0000
  9492 O126    45.6500  52.4414  -1.0630   O.3       1 RES1   0.0000
  9493 O129    54.5674  45.8105  -0.8846   O.3       1 RES1   0.0000
  9494 O130    43.5240  52.2809  -0.8846   O.3       1 RES1   0.0000
  9495 O132    54.5674  52.2809   9.8020   O.3       1 RES1   0.0000
  9496 O133    34.7850  54.5674  10.1409   O.3       1 RES1   0.0000
  9497 O136    45.4716  54.5674  16.6113   O.3       1 RES1   0.0000
  9498 O140    52.2809  45.4716  18.8978   O.3       1 RES1   0.0000
  9499 O141    52.4414  43.3635  18.7194   O.3       1 RES1   0.0000
  9500 O142    45.6500  36.8931  18.7194   O.3       1 RES1   0.0000
  9501 O145    54.3890  52.4414   7.6939   O.3       1 RES1   0.0000
  9502 O146    54.3890  45.6500   1.2235   O.3       1 RES1   0.0000
  9503 O149    43.3635  54.3890  -1.0630   O.3       1 RES1   0.0000
  9504 O149    43.3635  54.3890  16.7718   O.3       1 RES1   0.0000
  9505 O150    36.8931  54.3890   9.9804   O.3       1 RES1   0.0000
  9506 O152    36.8931  43.7024  -1.0630   O.3       1 RES1   0.0000
  9507 O153    54.9044  43.1870   1.4000   O.3       1 RES1   0.0000
  9508 O154    43.1870  54.9044   1.4000   O.3       1 RES1   0.0000
  9509 O156    37.0696  54.9044   7.5174   O.3       1 RES1   0.0000
  9510 O156    54.9044  37.0696   7.5174   O.3       1 RES1   0.0000
  9511 O157    52.1044  45.9870  -1.4000   O.3       1 RES1   0.0000
  9512 O158    45.9870  52.1044  -1.4000   O.3       1 RES1   0.0000
  9513 Zr3     42.1285  44.7855  26.5403   Zr        1 RES1   0.0000
  9514 Zr7     44.3751  42.1285  26.9507   Zr        1 RES1   0.0000
  9515 Zr11    44.7855  44.3751  24.2937   Zr        1 RES1   0.0000
  9516 Zr13    51.0459  44.3885  35.4577   Zr        1 RES1   0.0000
  9517 Zr15    47.0455  44.3885  26.9641   Zr        1 RES1   0.0000
  9518 Zr17    53.2925  51.0459  26.5537   Zr        1 RES1   0.0000
  9519 Zr19    44.7989  47.0455  26.5537   Zr        1 RES1   0.0000
  9520 Zr21    44.3885  53.2925  33.2111   Zr        1 RES1   0.0000
  9521 Zr23    44.3885  44.7989  29.2107   Zr        1 RES1   0.0000
  9522 O1      39.3971  42.9551  17.9775   O.co2     1 RES1   0.0000
  9523 O3      40.8595  42.9551  26.6095   O.co2     1 RES1   0.0000
  9524 O5      35.8123  39.3971  25.1203   O.co2     1 RES1   0.0000
  9525 O7      44.4443  40.8595  25.1203   O.co2     1 RES1   0.0000
  9526 O9      42.9551  35.8123  21.5623   O.co2     1 RES1   0.0000
  9527 O11     42.9551  44.4443  23.0247   O.co2     1 RES1   0.0000
  9528 O13     49.7769  46.2189  35.5269   O.co2     1 RES1   0.0000
  9529 O14     48.3145  51.8725  35.5269   O.co2     1 RES1   0.0000
  9530 O15     48.3145  46.2189  26.8949   O.co2     1 RES1   0.0000
  9531 O16     49.7769  51.8725  26.8949   O.co2     1 RES1   0.0000
  9532 O17     53.3617  49.7769  28.3841   O.co2     1 RES1   0.0000
  9533 O18     53.3617  48.3145  34.0377   O.co2     1 RES1   0.0000
  9534 O19     44.7297  48.3145  28.3841   O.co2     1 RES1   0.0000
  9535 O20     44.7297  49.7769  34.0377   O.co2     1 RES1   0.0000
  9536 O21     46.2189  53.3617  31.9421   O.co2     1 RES1   0.0000
  9537 O22     51.8725  53.3617  30.4797   O.co2     1 RES1   0.0000
  9538 O23     46.2189  44.7297  30.4797   O.co2     1 RES1   0.0000
  9539 O24     51.8725  44.7297  31.9421   O.co2     1 RES1   0.0000
  9540 O25     39.0653  46.8092  18.2735   O.co2     1 RES1   0.0000
  9541 O26     41.1913  51.2822  18.2735   O.co2     1 RES1   0.0000
  9542 O27     41.1913  46.8092  26.3135   O.co2     1 RES1   0.0000
  9543 O28     39.0653  51.2822  26.3135   O.co2     1 RES1   0.0000
  9544 O29     36.1083  39.0653  28.9744   O.co2     1 RES1   0.0000
  9545 O30     36.1083  41.1913  33.4474   O.co2     1 RES1   0.0000
  9546 O31     44.1483  41.1913  28.9744   O.co2     1 RES1   0.0000
  9547 O32     44.1483  39.0653  33.4474   O.co2     1 RES1   0.0000
  9548 O33     46.8092  36.1083  21.2305   O.co2     1 RES1   0.0000
  9549 O34     51.2822  36.1083  23.3565   O.co2     1 RES1   0.0000
  9550 O35     46.8092  44.1483  23.3565   O.co2     1 RES1   0.0000
  9551 O36     51.2822  44.1483  21.2305   O.co2     1 RES1   0.0000
  9552 O37     50.1087  42.3648  35.2309   O.co2     1 RES1   0.0000
  9553 O38     47.9827  37.8918  35.2309   O.co2     1 RES1   0.0000
  9554 O39     47.9827  42.3648  27.1909   O.co2     1 RES1   0.0000
  9555 O40     50.1087  37.8918  27.1909   O.co2     1 RES1   0.0000
  9556 O41     53.0657  50.1087  24.5300   O.co2     1 RES1   0.0000
  9557 O42     53.0657  47.9827  20.0570   O.co2     1 RES1   0.0000
  9558 O43     45.0257  47.9827  24.5300   O.co2     1 RES1   0.0000
  9559 O44     45.0257  50.1087  20.0570   O.co2     1 RES1   0.0000
  9560 O45     42.3648  53.0657  32.2739   O.co2     1 RES1   0.0000
  9561 O46     37.8918  53.0657  30.1479   O.co2     1 RES1   0.0000
  9562 O47     42.3648  45.0257  30.1479   O.co2     1 RES1   0.0000
  9563 O48     37.8918  45.0257  32.2739   O.co2     1 RES1   0.0000
  9564 O49     39.0511  44.7172  20.0873   O.co2     1 RES1   0.0000
  9565 O51     41.2055  44.7172  24.4997   O.co2     1 RES1   0.0000
  9566 O53     37.9221  39.0511  26.8824   O.co2     1 RES1   0.0000
  9567 O55     42.3345  41.2055  26.8824   O.co2     1 RES1   0.0000
  9568 O57     44.7172  37.9221  21.2163   O.co2     1 RES1   0.0000
  9569 O59     44.7172  42.3345  23.3707   O.co2     1 RES1   0.0000
  9570 O61     50.1229  44.4568  33.4171   O.co2     1 RES1   0.0000
  9571 O62     47.9685  53.6346  33.4171   O.co2     1 RES1   0.0000
  9572 O63     47.9685  44.4568  29.0047   O.co2     1 RES1   0.0000
  9573 O64     50.1229  53.6346  29.0047   O.co2     1 RES1   0.0000
  9574 O65     51.2519  50.1229  26.6220   O.co2     1 RES1   0.0000
  9575 O66     51.2519  47.9685  35.7998   O.co2     1 RES1   0.0000
  9576 O67     46.8395  47.9685  26.6220   O.co2     1 RES1   0.0000
  9577 O68     46.8395  50.1229  35.7998   O.co2     1 RES1   0.0000
  9578 O69     44.4568  51.2519  32.2881   O.co2     1 RES1   0.0000
  9579 O70     53.6346  51.2519  30.1337   O.co2     1 RES1   0.0000
  9580 O71     44.4568  46.8395  30.1337   O.co2     1 RES1   0.0000
  9581 O72     53.6346  46.8395  32.2881   O.co2     1 RES1   0.0000
  9582 O73     39.3935  45.0133  34.0538   O.co2     1 RES1   0.0000
  9583 O74     40.8631  53.0781  34.0538   O.co2     1 RES1   0.0000
  9584 O75     40.8631  45.0133  28.3680   O.co2     1 RES1   0.0000
  9585 O76     39.3935  53.0781  28.3680   O.co2     1 RES1   0.0000
  9586 O77     51.8886  39.3935  27.1785   O.co2     1 RES1   0.0000
  9587 O78     51.8886  40.8631  35.2433   O.co2     1 RES1   0.0000
  9588 O79     46.2028  40.8631  27.1785   O.co2     1 RES1   0.0000
  9589 O80     46.2028  39.3935  35.2433   O.co2     1 RES1   0.0000
  9590 O81     45.0133  51.8886  21.5587   O.co2     1 RES1   0.0000
  9591 O82     53.0781  51.8886  23.0283   O.co2     1 RES1   0.0000
  9592 O83     45.0133  46.2028  23.0283   O.co2     1 RES1   0.0000
  9593 O84     53.0781  46.2028  21.5587   O.co2     1 RES1   0.0000
  9594 O87     48.3109  44.1607  25.1364   O.co2     1 RES1   0.0000
  9595 O88     49.7805  36.0959  25.1364   O.co2     1 RES1   0.0000
  9596 O91     42.9712  48.3109  26.3259   O.co2     1 RES1   0.0000
  9597 O92     42.9712  49.7805  18.2611   O.co2     1 RES1   0.0000
  9598 O95     44.1607  42.9712  30.4761   O.co2     1 RES1   0.0000
  9599 O96     36.0959  42.9712  31.9457   O.co2     1 RES1   0.0000
  9600 C1      38.5303  47.9596  18.2628   C.2       1 RES1   0.0000
  9601 C2      41.7263  50.1318  18.2628   C.2       1 RES1   0.0000
  9602 C3      41.7263  47.9596  26.3242   C.2       1 RES1   0.0000
  9603 C4      38.5303  50.1318  26.3242   C.2       1 RES1   0.0000
  9604 C5      36.0976  38.5303  30.1248   C.2       1 RES1   0.0000
  9605 C6      36.0976  41.7263  32.2970   C.2       1 RES1   0.0000
  9606 C7      44.1590  41.7263  30.1248   C.2       1 RES1   0.0000
  9607 C8      44.1590  38.5303  32.2970   C.2       1 RES1   0.0000
  9608 C9      47.9596  36.0976  20.6955   C.2       1 RES1   0.0000
  9609 C10     50.1318  36.0976  23.8915   C.2       1 RES1   0.0000
  9610 C11     47.9596  44.1590  23.8915   C.2       1 RES1   0.0000
  9611 C12     50.1318  44.1590  20.6955   C.2       1 RES1   0.0000
  9612 C13     50.6437  41.2144  35.2416   C.2       1 RES1   0.0000
  9613 C14     47.4477  39.0422  35.2416   C.2       1 RES1   0.0000
  9614 C15     47.4477  41.2144  27.1802   C.2       1 RES1   0.0000
  9615 C16     50.6437  39.0422  27.1802   C.2       1 RES1   0.0000
  9616 C17     53.0764  50.6437  23.3796   C.2       1 RES1   0.0000
  9617 C18     53.0764  47.4477  21.2074   C.2       1 RES1   0.0000
  9618 C19     45.0150  47.4477  23.3796   C.2       1 RES1   0.0000
  9619 C20     45.0150  50.6437  21.2074   C.2       1 RES1   0.0000
  9620 C21     41.2144  53.0764  32.8089   C.2       1 RES1   0.0000
  9621 C22     39.0422  53.0764  29.6129   C.2       1 RES1   0.0000
  9622 C23     41.2144  45.0150  29.6129   C.2       1 RES1   0.0000
  9623 C24     39.0422  45.0150  32.8089   C.2       1 RES1   0.0000
  9624 C25     39.4898  49.1438  18.2682   C.2       1 RES1   0.0000
  9625 C26     40.7668  48.9476  18.2682   C.2       1 RES1   0.0000
  9626 C27     40.7668  49.1438  26.3188   C.2       1 RES1   0.0000
  9627 C28     39.4898  48.9476  26.3188   C.2       1 RES1   0.0000
  9628 C29     36.1030  39.4898  31.3090   C.2       1 RES1   0.0000
  9629 C30     36.1030  40.7668  31.1128   C.2       1 RES1   0.0000
  9630 C31     44.1536  40.7668  31.3090   C.2       1 RES1   0.0000
  9631 C32     44.1536  39.4898  31.1128   C.2       1 RES1   0.0000
  9632 C33     49.1438  36.1030  21.6550   C.2       1 RES1   0.0000
  9633 C34     48.9476  36.1030  22.9320   C.2       1 RES1   0.0000
  9634 C35     49.1438  44.1536  22.9320   C.2       1 RES1   0.0000
  9635 C36     48.9476  44.1536  21.6550   C.2       1 RES1   0.0000
  9636 C37     49.6842  40.0302  35.2362   C.2       1 RES1   0.0000
  9637 C38     48.4072  40.2264  35.2362   C.2       1 RES1   0.0000
  9638 C39     48.4072  40.0302  27.1856   C.2       1 RES1   0.0000
  9639 C40     49.6842  40.2264  27.1856   C.2       1 RES1   0.0000
  9640 C41     53.0710  49.6842  22.1954   C.2       1 RES1   0.0000
  9641 C42     53.0710  48.4072  22.3916   C.2       1 RES1   0.0000
  9642 C43     45.0204  48.4072  22.1954   C.2       1 RES1   0.0000
  9643 C44     45.0204  49.6842  22.3916   C.2       1 RES1   0.0000
  9644 C45     40.0302  53.0710  31.8494   C.2       1 RES1   0.0000
  9645 C46     40.2264  53.0710  30.5724   C.2       1 RES1   0.0000
  9646 C47     40.0302  45.0204  30.5724   C.2       1 RES1   0.0000
  9647 C48     40.2264  45.0204  31.8494   C.2       1 RES1   0.0000
  9648 H1      39.1563  50.0123  18.2700   H         1 RES1   0.0000
  9649 H2      41.1003  48.0791  18.2700   H         1 RES1   0.0000
  9650 H3      41.1003  50.0123  26.3170   H         1 RES1   0.0000
  9651 H4      39.1563  48.0791  26.3170   H         1 RES1   0.0000
  9652 H5      36.1048  39.1563  32.1775   H         1 RES1   0.0000
  9653 H6      36.1048  41.1003  30.2443   H         1 RES1   0.0000
  9654 H7      44.1518  41.1003  32.1775   H         1 RES1   0.0000
  9655 H8      44.1518  39.1563  30.2443   H         1 RES1   0.0000
  9656 H9      50.0123  36.1048  21.3215   H         1 RES1   0.0000
  9657 H10     48.0791  36.1048  23.2655   H         1 RES1   0.0000
  9658 H11     50.0123  44.1518  23.2655   H         1 RES1   0.0000
  9659 H12     48.0791  44.1518  21.3215   H         1 RES1   0.0000
  9660 H13     50.0177  39.1617  35.2344   H         1 RES1   0.0000
  9661 H14     48.0737  41.0949  35.2344   H         1 RES1   0.0000
  9662 H15     48.0737  39.1617  27.1874   H         1 RES1   0.0000
  9663 H16     50.0177  41.0949  27.1874   H         1 RES1   0.0000
  9664 H17     53.0692  50.0177  21.3269   H         1 RES1   0.0000
  9665 H18     53.0692  48.0737  23.2601   H         1 RES1   0.0000
  9666 H19     45.0222  48.0737  21.3269   H         1 RES1   0.0000
  9667 H20     45.0222  50.0177  23.2601   H         1 RES1   0.0000
  9668 H21     39.1617  53.0692  32.1829   H         1 RES1   0.0000
  9669 H22     41.0949  53.0692  30.2389   H         1 RES1   0.0000
  9670 H23     39.1617  45.0222  30.2389   H         1 RES1   0.0000
  9671 H24     41.0949  45.0222  32.1829   H         1 RES1   0.0000
  9672 C49     39.0689  41.7299  17.8348   C.2       1 RES1   0.0000
  9673 C50     41.1877  38.5267  17.8348   C.2       1 RES1   0.0000
  9674 C51     41.1877  41.7299  26.7522   C.2       1 RES1   0.0000
  9675 C52     39.0689  38.5267  26.7522   C.2       1 RES1   0.0000
  9676 C53     35.6696  39.0689  23.8951   C.2       1 RES1   0.0000
  9677 C54     35.6696  41.1877  20.6919   C.2       1 RES1   0.0000
  9678 C55     44.5870  41.1877  23.8951   C.2       1 RES1   0.0000
  9679 C56     44.5870  39.0689  20.6919   C.2       1 RES1   0.0000
  9680 C57     41.7299  35.6696  21.2341   C.2       1 RES1   0.0000
  9681 C58     38.5267  35.6696  23.3529   C.2       1 RES1   0.0000
  9682 C59     41.7299  44.5870  23.3529   C.2       1 RES1   0.0000
  9683 C60     38.5267  44.5870  21.2341   C.2       1 RES1   0.0000
  9684 C61     50.1051  47.4441  35.6696   C.2       1 RES1   0.0000
  9685 C62     47.9863  50.6473  35.6696   C.2       1 RES1   0.0000
  9686 C63     47.9863  47.4441  26.7522   C.2       1 RES1   0.0000
  9687 C64     50.1051  50.6473  26.7522   C.2       1 RES1   0.0000
  9688 C65     53.5044  50.1051  29.6093   C.2       1 RES1   0.0000
  9689 C66     53.5044  47.9863  32.8125   C.2       1 RES1   0.0000
  9690 C67     44.5870  47.9863  29.6093   C.2       1 RES1   0.0000
  9691 C68     44.5870  50.1051  32.8125   C.2       1 RES1   0.0000
  9692 C69     47.4441  53.5044  32.2703   C.2       1 RES1   0.0000
  9693 C70     50.6473  53.5044  30.1515   C.2       1 RES1   0.0000
  9694 C71     47.4441  44.5870  30.1515   C.2       1 RES1   0.0000
  9695 C72     50.6473  44.5870  32.2703   C.2       1 RES1   0.0000
  9696 C73     40.2478  40.7793  17.8366   C.2       1 RES1   0.0000
  9697 C74     40.0088  39.4773  17.8366   C.2       1 RES1   0.0000
  9698 C75     40.0088  40.7793  26.7504   C.2       1 RES1   0.0000
  9699 C76     40.2478  39.4773  26.7504   C.2       1 RES1   0.0000
  9700 C77     35.6714  40.2478  22.9445   C.2       1 RES1   0.0000
  9701 C78     35.6714  40.0088  21.6425   C.2       1 RES1   0.0000
  9702 C79     44.5852  40.0088  22.9445   C.2       1 RES1   0.0000
  9703 C80     44.5852  40.2478  21.6425   C.2       1 RES1   0.0000
  9704 C81     40.7793  35.6714  22.4130   C.2       1 RES1   0.0000
  9705 C82     39.4773  35.6714  22.1740   C.2       1 RES1   0.0000
  9706 C83     40.7793  44.5852  22.1740   C.2       1 RES1   0.0000
  9707 C84     39.4773  44.5852  22.4130   C.2       1 RES1   0.0000
  9708 C85     48.9262  48.3947  35.6678   C.2       1 RES1   0.0000
  9709 C86     49.1652  49.6967  35.6678   C.2       1 RES1   0.0000
  9710 C87     49.1652  48.3947  26.7540   C.2       1 RES1   0.0000
  9711 C88     48.9262  49.6967  26.7540   C.2       1 RES1   0.0000
  9712 C89     53.5026  48.9262  30.5599   C.2       1 RES1   0.0000
  9713 C90     53.5026  49.1652  31.8619   C.2       1 RES1   0.0000
  9714 C91     44.5888  49.1652  30.5599   C.2       1 RES1   0.0000
  9715 C92     44.5888  48.9262  31.8619   C.2       1 RES1   0.0000
  9716 C93     48.3947  53.5026  31.0914   C.2       1 RES1   0.0000
  9717 C94     49.6967  53.5026  31.3304   C.2       1 RES1   0.0000
  9718 C95     48.3947  44.5888  31.3304   C.2       1 RES1   0.0000
  9719 C96     49.6967  44.5888  31.0914   C.2       1 RES1   0.0000
  9720 H25     41.1199  41.1021  17.8366   H         1 RES1   0.0000
  9721 H26     39.1367  39.1545  17.8366   H         1 RES1   0.0000
  9722 H27     39.1367  41.1021  26.7504   H         1 RES1   0.0000
  9723 H28     41.1199  39.1545  26.7504   H         1 RES1   0.0000
  9724 H29     35.6714  41.1199  23.2673   H         1 RES1   0.0000
  9725 H30     35.6714  39.1367  21.3197   H         1 RES1   0.0000
  9726 H31     44.5852  39.1367  23.2673   H         1 RES1   0.0000
  9727 H32     44.5852  41.1199  21.3197   H         1 RES1   0.0000
  9728 H33     41.1021  35.6714  23.2851   H         1 RES1   0.0000
  9729 H34     39.1545  35.6714  21.3019   H         1 RES1   0.0000
  9730 H35     41.1021  44.5852  21.3019   H         1 RES1   0.0000
  9731 H36     39.1545  44.5852  23.2851   H         1 RES1   0.0000
  9732 H37     48.0541  48.0719  35.6678   H         1 RES1   0.0000
  9733 H38     50.0373  50.0195  35.6678   H         1 RES1   0.0000
  9734 H39     50.0373  48.0719  26.7540   H         1 RES1   0.0000
  9735 H40     48.0541  50.0195  26.7540   H         1 RES1   0.0000
  9736 H41     53.5026  48.0541  30.2371   H         1 RES1   0.0000
  9737 H42     53.5026  50.0373  32.1847   H         1 RES1   0.0000
  9738 H43     44.5888  50.0373  30.2371   H         1 RES1   0.0000
  9739 H44     44.5888  48.0541  32.1847   H         1 RES1   0.0000
  9740 H45     48.0719  53.5026  30.2193   H         1 RES1   0.0000
  9741 H46     50.0195  53.5026  32.2025   H         1 RES1   0.0000
  9742 H47     48.0719  44.5888  32.2025   H         1 RES1   0.0000
  9743 H48     50.0195  44.5888  30.2193   H         1 RES1   0.0000
  9744 O98     43.2226  51.8689  34.5157   O.3       1 RES1   0.0000
  9745 O99     43.2226  46.2225  27.9061   O.3       1 RES1   0.0000
  9746 O101    52.3505  37.0340  28.3877   O.3       1 RES1   0.0000
  9747 O102    52.3505  43.2226  34.0341   O.3       1 RES1   0.0000
  9748 O103    45.7409  43.2226  28.3877   O.3       1 RES1   0.0000
  9749 O105    46.2225  52.3505  19.1992   O.3       1 RES1   0.0000
  9750 O106    51.8689  52.3505  25.3878   O.3       1 RES1   0.0000
  9751 O107    46.2225  45.7409  25.3878   O.3       1 RES1   0.0000
  9752 O111    45.9514  42.9515  25.5983   O.3       1 RES1   0.0000
  9753 O112    52.1400  37.3051  25.5983   O.3       1 RES1   0.0000
  9754 O115    43.4331  45.9514  25.1167   O.3       1 RES1   0.0000
  9755 O116    43.4331  52.1400  19.4703   O.3       1 RES1   0.0000
  9756 O119    42.9515  43.4331  28.1166   O.3       1 RES1   0.0000
  9757 O120    37.3051  43.4331  34.3052   O.3       1 RES1   0.0000
  9758 O123    43.5240  43.5240  25.6892   O.3       1 RES1   0.0000
  9759 O125    52.4414  45.6500  34.6066   O.3       1 RES1   0.0000
  9760 O126    45.6500  52.4414  34.6066   O.3       1 RES1   0.0000
  9761 O127    45.6500  45.6500  27.8152   O.3       1 RES1   0.0000
  9762 O128    52.4414  52.4414  27.8152   O.3       1 RES1   0.0000
  9763 O130    43.5240  52.2809  34.7850   O.3       1 RES1   0.0000
  9764 O131    43.5240  45.8105  27.6368   O.3       1 RES1   0.0000
  9765 O133    52.6198  36.7326  27.9757   O.3       1 RES1   0.0000
  9766 O134    52.6198  43.5240  34.4461   O.3       1 RES1   0.0000
  9767 O135    45.4716  43.5240  27.9757   O.3       1 RES1   0.0000
  9768 O137    45.8105  52.6198  18.8978   O.3       1 RES1   0.0000
  9769 O138    52.2809  52.6198  25.6892   O.3       1 RES1   0.0000
  9770 O139    45.8105  45.4716  25.6892   O.3       1 RES1   0.0000
  9771 O143    45.6500  43.3635  25.8676   O.3       1 RES1   0.0000
  9772 O144    52.4414  36.8931  25.8676   O.3       1 RES1   0.0000
  9773 O147    43.7024  45.6500  25.5287   O.3       1 RES1   0.0000
  9774 O148    43.7024  52.4414  19.0583   O.3       1 RES1   0.0000
  9775 O151    43.3635  43.7024  27.8152   O.3       1 RES1   0.0000
  9776 O152    36.8931  43.7024  34.6066   O.3       1 RES1   0.0000
  9777 O155    43.1870  43.1870  25.3522   O.3       1 RES1   0.0000
  9778 O157    52.1044  45.9870  34.2696   O.3       1 RES1   0.0000
  9779 O158    45.9870  52.1044  34.2696   O.3       1 RES1   0.0000
  9780 O159    45.9870  45.9870  28.1522   O.3       1 RES1   0.0000
  9781 O160    52.1044  52.1044  28.1522   O.3       1 RES1   0.0000
  9782 Zr1     55.9629  44.7855  18.0467   Zr        1 RES1   0.0000
  9783 Zr2     42.1285  53.3059  35.8815   Zr        1 RES1   0.0000
  9784 Zr4     55.9629  53.3059  26.5403   Zr        1 RES1   0.0000
  9785 Zr5     35.8815  55.9629  26.9507   Zr        1 RES1   0.0000
  9786 Zr5     53.7163  38.1281  26.9507   Zr        1 RES1   0.0000
  9787 Zr6     53.7163  42.1285  35.4711   Zr        1 RES1   0.0000
  9788 Zr8     44.3751  55.9629  35.4711   Zr        1 RES1   0.0000
  9789 Zr9     44.7855  53.7163  20.2933   Zr        1 RES1   0.0000
  9790 Zr10    53.3059  53.7163  24.2937   Zr        1 RES1   0.0000
  9791 Zr12    53.3059  44.3751  38.1281   Zr        1 RES1   0.0000
  9792 Zr14    47.0455  53.7029  35.4577   Zr        1 RES1   0.0000
  9793 Zr16    51.0459  53.7029  26.9641   Zr        1 RES1   0.0000
  9794 Zr18    53.2925  47.0455  35.8681   Zr        1 RES1   0.0000
  9795 Zr20    44.7989  51.0459  35.8681   Zr        1 RES1   0.0000
  9796 Zr22    53.7029  53.2925  29.2107   Zr        1 RES1   0.0000
  9797 Zr24    53.7029  44.7989  33.2111   Zr        1 RES1   0.0000
  9798 O2      40.8595  55.1363  17.9775   O.2       1 RES1   0.0000
  9799 O4      39.3971  55.1363  26.6095   O.2       1 RES1   0.0000
  9800 O6      35.8123  40.8595  37.3015   O.co2     1 RES1   0.0000
  9801 O8      44.4443  39.3971  37.3015   O.co2     1 RES1   0.0000
  9802 O10     55.1363  35.8123  23.0247   O.2       1 RES1   0.0000
  9803 O12     55.1363  44.4443  21.5623   O.2       1 RES1   0.0000
  9804 O50     41.2055  53.3742  20.0873   O.2       1 RES1   0.0000
  9805 O52     39.0511  53.3742  24.4997   O.2       1 RES1   0.0000
  9806 O54     37.9221  41.2055  35.5394   O.co2     1 RES1   0.0000
  9807 O56     42.3345  39.0511  35.5394   O.co2     1 RES1   0.0000
  9808 O58     53.3742  37.9221  23.3707   O.2       1 RES1   0.0000
  9809 O60     53.3742  42.3345  21.2163   O.2       1 RES1   0.0000
  9810 O85     49.7805  44.1607  37.2854   O.co2     1 RES1   0.0000
  9811 O86     48.3109  36.0959  37.2854   O.co2     1 RES1   0.0000
  9812 O89     55.1202  49.7805  26.3259   O.2       1 RES1   0.0000
  9813 O90     55.1202  48.3109  18.2611   O.2       1 RES1   0.0000
  9814 O93     44.1607  55.1202  31.9457   O.2       1 RES1   0.0000
  9815 O94     36.0959  55.1202  30.4761   O.2       1 RES1   0.0000
  9816 O97     54.8688  46.2225  16.6809   O.3       1 RES1   0.0000
  9817 O100    54.8688  51.8689  27.9061   O.3       1 RES1   0.0000
  9818 O101    34.5157  54.8688  28.3877   O.3       1 RES1   0.0000
  9819 O104    45.7409  54.8688  34.0341   O.3       1 RES1   0.0000
  9820 O108    51.8689  45.7409  37.0340   O.3       1 RES1   0.0000
  9821 O109    52.1400  42.9515  36.8235   O.3       1 RES1   0.0000
  9822 O110    45.9514  37.3051  36.8235   O.3       1 RES1   0.0000
  9823 O113    54.6583  52.1400  25.1167   O.3       1 RES1   0.0000
  9824 O114    54.6583  45.9514  19.4703   O.3       1 RES1   0.0000
  9825 O117    42.9515  54.6583  34.3052   O.3       1 RES1   0.0000
  9826 O118    37.3051  54.6583  28.1166   O.3       1 RES1   0.0000
  9827 O121    54.5674  43.5240  18.8978   O.3       1 RES1   0.0000
  9828 O122    43.5240  54.5674  18.8978   O.3       1 RES1   0.0000
  9829 O124    36.7326  54.5674  25.6892   O.3       1 RES1   0.0000
  9830 O124    54.5674  36.7326  25.6892   O.3       1 RES1   0.0000
  9831 O129    54.5674  45.8105  16.9502   O.3       1 RES1   0.0000
  9832 O132    54.5674  52.2809  27.6368   O.3       1 RES1   0.0000
  9833 O133    34.7850  54.5674  27.9757   O.3       1 RES1   0.0000
  9834 O136    45.4716  54.5674  34.4461   O.3       1 RES1   0.0000
  9835 O140    52.2809  45.4716  36.7326   O.3       1 RES1   0.0000
  9836 O141    52.4414  43.3635  36.5542   O.3       1 RES1   0.0000
  9837 O142    45.6500  36.8931  36.5542   O.3       1 RES1   0.0000
  9838 O145    54.3890  52.4414  25.5287   O.3       1 RES1   0.0000
  9839 O146    54.3890  45.6500  19.0583   O.3       1 RES1   0.0000
  9840 O149    43.3635  54.3890  34.6066   O.3       1 RES1   0.0000
  9841 O150    36.8931  54.3890  27.8152   O.3       1 RES1   0.0000
  9842 O153    54.9044  43.1870  19.2348   O.3       1 RES1   0.0000
  9843 O154    43.1870  54.9044  19.2348   O.3       1 RES1   0.0000
  9844 O156    37.0696  54.9044  25.3522   O.3       1 RES1   0.0000
  9845 O156    54.9044  37.0696  25.3522   O.3       1 RES1   0.0000
  9846 Zr3     42.1285  44.7855  44.3751   Zr        1 RES1   0.0000
  9847 Zr7     44.3751  42.1285  44.7855   Zr        1 RES1   0.0000
  9848 Zr11    44.7855  44.3751  42.1285   Zr        1 RES1   0.0000
  9849 Zr13    51.0459  44.3885  53.2925   Zr        1 RES1   0.0000
  9850 Zr15    47.0455  44.3885  44.7989   Zr        1 RES1   0.0000
  9851 Zr17    53.2925  51.0459  44.3885   Zr        1 RES1   0.0000
  9852 Zr19    44.7989  47.0455  44.3885   Zr        1 RES1   0.0000
  9853 Zr21    44.3885  53.2925  51.0459   Zr        1 RES1   0.0000
  9854 Zr23    44.3885  44.7989  47.0455   Zr        1 RES1   0.0000
  9855 O1      39.3971  42.9551  35.8123   O.co2     1 RES1   0.0000
  9856 O3      40.8595  42.9551  44.4443   O.co2     1 RES1   0.0000
  9857 O5      35.8123  39.3971  42.9551   O.co2     1 RES1   0.0000
  9858 O7      44.4443  40.8595  42.9551   O.co2     1 RES1   0.0000
  9859 O9      42.9551  35.8123  39.3971   O.co2     1 RES1   0.0000
  9860 O11     42.9551  44.4443  40.8595   O.co2     1 RES1   0.0000
  9861 O13     49.7769  46.2189  53.3617   O.co2     1 RES1   0.0000
  9862 O14     48.3145  51.8725  53.3617   O.co2     1 RES1   0.0000
  9863 O15     48.3145  46.2189  44.7297   O.co2     1 RES1   0.0000
  9864 O16     49.7769  51.8725  44.7297   O.co2     1 RES1   0.0000
  9865 O17     53.3617  49.7769  46.2189   O.co2     1 RES1   0.0000
  9866 O18     53.3617  48.3145  51.8725   O.co2     1 RES1   0.0000
  9867 O19     44.7297  48.3145  46.2189   O.co2     1 RES1   0.0000
  9868 O20     44.7297  49.7769  51.8725   O.co2     1 RES1   0.0000
  9869 O21     46.2189  53.3617  49.7769   O.co2     1 RES1   0.0000
  9870 O22     51.8725  53.3617  48.3145   O.co2     1 RES1   0.0000
  9871 O23     46.2189  44.7297  48.3145   O.co2     1 RES1   0.0000
  9872 O24     51.8725  44.7297  49.7769   O.co2     1 RES1   0.0000
  9873 O25     39.0653  46.8092  36.1083   O.co2     1 RES1   0.0000
  9874 O26     41.1913  51.2822  36.1083   O.co2     1 RES1   0.0000
  9875 O27     41.1913  46.8092  44.1483   O.co2     1 RES1   0.0000
  9876 O28     39.0653  51.2822  44.1483   O.co2     1 RES1   0.0000
  9877 O29     36.1083  39.0653  46.8092   O.co2     1 RES1   0.0000
  9878 O30     36.1083  41.1913  51.2822   O.co2     1 RES1   0.0000
  9879 O31     44.1483  41.1913  46.8092   O.co2     1 RES1   0.0000
  9880 O32     44.1483  39.0653  51.2822   O.co2     1 RES1   0.0000
  9881 O33     46.8092  36.1083  39.0653   O.co2     1 RES1   0.0000
  9882 O34     51.2822  36.1083  41.1913   O.co2     1 RES1   0.0000
  9883 O35     46.8092  44.1483  41.1913   O.co2     1 RES1   0.0000
  9884 O36     51.2822  44.1483  39.0653   O.co2     1 RES1   0.0000
  9885 O37     50.1087  42.3648  53.0657   O.co2     1 RES1   0.0000
  9886 O38     47.9827  37.8918  53.0657   O.co2     1 RES1   0.0000
  9887 O39     47.9827  42.3648  45.0257   O.co2     1 RES1   0.0000
  9888 O40     50.1087  37.8918  45.0257   O.co2     1 RES1   0.0000
  9889 O41     53.0657  50.1087  42.3648   O.co2     1 RES1   0.0000
  9890 O42     53.0657  47.9827  37.8918   O.co2     1 RES1   0.0000
  9891 O43     45.0257  47.9827  42.3648   O.co2     1 RES1   0.0000
  9892 O44     45.0257  50.1087  37.8918   O.co2     1 RES1   0.0000
  9893 O45     42.3648  53.0657  50.1087   O.co2     1 RES1   0.0000
  9894 O46     37.8918  53.0657  47.9827   O.co2     1 RES1   0.0000
  9895 O47     42.3648  45.0257  47.9827   O.co2     1 RES1   0.0000
  9896 O48     37.8918  45.0257  50.1087   O.co2     1 RES1   0.0000
  9897 O49     39.0511  44.7172  37.9221   O.co2     1 RES1   0.0000
  9898 O51     41.2055  44.7172  42.3345   O.co2     1 RES1   0.0000
  9899 O53     37.9221  39.0511  44.7172   O.co2     1 RES1   0.0000
  9900 O55     42.3345  41.2055  44.7172   O.co2     1 RES1   0.0000
  9901 O57     44.7172  37.9221  39.0511   O.co2     1 RES1   0.0000
  9902 O59     44.7172  42.3345  41.2055   O.co2     1 RES1   0.0000
  9903 O61     50.1229  44.4568  51.2519   O.co2     1 RES1   0.0000
  9904 O62     47.9685  53.6346  51.2519   O.co2     1 RES1   0.0000
  9905 O63     47.9685  44.4568  46.8395   O.co2     1 RES1   0.0000
  9906 O64     50.1229  53.6346  46.8395   O.co2     1 RES1   0.0000
  9907 O65     51.2519  50.1229  44.4568   O.co2     1 RES1   0.0000
  9908 O66     51.2519  47.9685  53.6346   O.co2     1 RES1   0.0000
  9909 O67     46.8395  47.9685  44.4568   O.co2     1 RES1   0.0000
  9910 O68     46.8395  50.1229  53.6346   O.co2     1 RES1   0.0000
  9911 O69     44.4568  51.2519  50.1229   O.co2     1 RES1   0.0000
  9912 O70     53.6346  51.2519  47.9685   O.co2     1 RES1   0.0000
  9913 O71     44.4568  46.8395  47.9685   O.co2     1 RES1   0.0000
  9914 O72     53.6346  46.8395  50.1229   O.co2     1 RES1   0.0000
  9915 O73     39.3935  45.0133  51.8886   O.co2     1 RES1   0.0000
  9916 O74     40.8631  53.0781  51.8886   O.co2     1 RES1   0.0000
  9917 O75     40.8631  45.0133  46.2028   O.co2     1 RES1   0.0000
  9918 O76     39.3935  53.0781  46.2028   O.co2     1 RES1   0.0000
  9919 O77     51.8886  39.3935  45.0133   O.co2     1 RES1   0.0000
  9920 O78     51.8886  40.8631  53.0781   O.co2     1 RES1   0.0000
  9921 O79     46.2028  40.8631  45.0133   O.co2     1 RES1   0.0000
  9922 O80     46.2028  39.3935  53.0781   O.co2     1 RES1   0.0000
  9923 O81     45.0133  51.8886  39.3935   O.co2     1 RES1   0.0000
  9924 O82     53.0781  51.8886  40.8631   O.co2     1 RES1   0.0000
  9925 O83     45.0133  46.2028  40.8631   O.co2     1 RES1   0.0000
  9926 O84     53.0781  46.2028  39.3935   O.co2     1 RES1   0.0000
  9927 O87     48.3109  44.1607  42.9712   O.co2     1 RES1   0.0000
  9928 O88     49.7805  36.0959  42.9712   O.co2     1 RES1   0.0000
  9929 O91     42.9712  48.3109  44.1607   O.co2     1 RES1   0.0000
  9930 O92     42.9712  49.7805  36.0959   O.co2     1 RES1   0.0000
  9931 O95     44.1607  42.9712  48.3109   O.co2     1 RES1   0.0000
  9932 O96     36.0959  42.9712  49.7805   O.co2     1 RES1   0.0000
  9933 C1      38.5303  47.9596  36.0976   C.2       1 RES1   0.0000
  9934 C2      41.7263  50.1318  36.0976   C.2       1 RES1   0.0000
  9935 C3      41.7263  47.9596  44.1590   C.2       1 RES1   0.0000
  9936 C4      38.5303  50.1318  44.1590   C.2       1 RES1   0.0000
  9937 C5      36.0976  38.5303  47.9596   C.2       1 RES1   0.0000
  9938 C6      36.0976  41.7263  50.1318   C.2       1 RES1   0.0000
  9939 C7      44.1590  41.7263  47.9596   C.2       1 RES1   0.0000
  9940 C8      44.1590  38.5303  50.1318   C.2       1 RES1   0.0000
  9941 C9      47.9596  36.0976  38.5303   C.2       1 RES1   0.0000
  9942 C10     50.1318  36.0976  41.7263   C.2       1 RES1   0.0000
  9943 C11     47.9596  44.1590  41.7263   C.2       1 RES1   0.0000
  9944 C12     50.1318  44.1590  38.5303   C.2       1 RES1   0.0000
  9945 C13     50.6437  41.2144  53.0764   C.2       1 RES1   0.0000
  9946 C14     47.4477  39.0422  53.0764   C.2       1 RES1   0.0000
  9947 C15     47.4477  41.2144  45.0150   C.2       1 RES1   0.0000
  9948 C16     50.6437  39.0422  45.0150   C.2       1 RES1   0.0000
  9949 C17     53.0764  50.6437  41.2144   C.2       1 RES1   0.0000
  9950 C18     53.0764  47.4477  39.0422   C.2       1 RES1   0.0000
  9951 C19     45.0150  47.4477  41.2144   C.2       1 RES1   0.0000
  9952 C20     45.0150  50.6437  39.0422   C.2       1 RES1   0.0000
  9953 C21     41.2144  53.0764  50.6437   C.2       1 RES1   0.0000
  9954 C22     39.0422  53.0764  47.4477   C.2       1 RES1   0.0000
  9955 C23     41.2144  45.0150  47.4477   C.2       1 RES1   0.0000
  9956 C24     39.0422  45.0150  50.6437   C.2       1 RES1   0.0000
  9957 C25     39.4898  49.1438  36.1030   C.2       1 RES1   0.0000
  9958 C26     40.7668  48.9476  36.1030   C.2       1 RES1   0.0000
  9959 C27     40.7668  49.1438  44.1536   C.2       1 RES1   0.0000
  9960 C28     39.4898  48.9476  44.1536   C.2       1 RES1   0.0000
  9961 C29     36.1030  39.4898  49.1438   C.2       1 RES1   0.0000
  9962 C30     36.1030  40.7668  48.9476   C.2       1 RES1   0.0000
  9963 C31     44.1536  40.7668  49.1438   C.2       1 RES1   0.0000
  9964 C32     44.1536  39.4898  48.9476   C.2       1 RES1   0.0000
  9965 C33     49.1438  36.1030  39.4898   C.2       1 RES1   0.0000
  9966 C34     48.9476  36.1030  40.7668   C.2       1 RES1   0.0000
  9967 C35     49.1438  44.1536  40.7668   C.2       1 RES1   0.0000
  9968 C36     48.9476  44.1536  39.4898   C.2       1 RES1   0.0000
  9969 C37     49.6842  40.0302  53.0710   C.2       1 RES1   0.0000
  9970 C38     48.4072  40.2264  53.0710   C.2       1 RES1   0.0000
  9971 C39     48.4072  40.0302  45.0204   C.2       1 RES1   0.0000
  9972 C40     49.6842  40.2264  45.0204   C.2       1 RES1   0.0000
  9973 C41     53.0710  49.6842  40.0302   C.2       1 RES1   0.0000
  9974 C42     53.0710  48.4072  40.2264   C.2       1 RES1   0.0000
  9975 C43     45.0204  48.4072  40.0302   C.2       1 RES1   0.0000
  9976 C44     45.0204  49.6842  40.2264   C.2       1 RES1   0.0000
  9977 C45     40.0302  53.0710  49.6842   C.2       1 RES1   0.0000
  9978 C46     40.2264  53.0710  48.4072   C.2       1 RES1   0.0000
  9979 C47     40.0302  45.0204  48.4072   C.2       1 RES1   0.0000
  9980 C48     40.2264  45.0204  49.6842   C.2       1 RES1   0.0000
  9981 H1      39.1563  50.0123  36.1048   H         1 RES1   0.0000
  9982 H2      41.1003  48.0791  36.1048   H         1 RES1   0.0000
  9983 H3      41.1003  50.0123  44.1518   H         1 RES1   0.0000
  9984 H4      39.1563  48.0791  44.1518   H         1 RES1   0.0000
  9985 H5      36.1048  39.1563  50.0123   H         1 RES1   0.0000
  9986 H6      36.1048  41.1003  48.0791   H         1 RES1   0.0000
  9987 H7      44.1518  41.1003  50.0123   H         1 RES1   0.0000
  9988 H8      44.1518  39.1563  48.0791   H         1 RES1   0.0000
  9989 H9      50.0123  36.1048  39.1563   H         1 RES1   0.0000
  9990 H10     48.0791  36.1048  41.1003   H         1 RES1   0.0000
  9991 H11     50.0123  44.1518  41.1003   H         1 RES1   0.0000
  9992 H12     48.0791  44.1518  39.1563   H         1 RES1   0.0000
  9993 H13     50.0177  39.1617  53.0692   H         1 RES1   0.0000
  9994 H14     48.0737  41.0949  53.0692   H         1 RES1   0.0000
  9995 H15     48.0737  39.1617  45.0222   H         1 RES1   0.0000
  9996 H16     50.0177  41.0949  45.0222   H         1 RES1   0.0000
  9997 H17     53.0692  50.0177  39.1617   H         1 RES1   0.0000
  9998 H18     53.0692  48.0737  41.0949   H         1 RES1   0.0000
  9999 H19     45.0222  48.0737  39.1617   H         1 RES1   0.0000
 10000 H20     45.0222  50.0177  41.0949   H         1 RES1   0.0000
 10001 H21     39.1617  53.0692  50.0177   H         1 RES1   0.0000
 10002 H22     41.0949  53.0692  48.0737   H         1 RES1   0.0000
 10003 H23     39.1617  45.0222  48.0737   H         1 RES1   0.0000
 10004 H24     41.0949  45.0222  50.0177   H         1 RES1   0.0000
 10005 C49     39.0689  41.7299  35.6696   C.2       1 RES1   0.0000
 10006 C50     41.1877  38.5267  35.6696   C.2       1 RES1   0.0000
 10007 C51     41.1877  41.7299  44.5870   C.2       1 RES1   0.0000
 10008 C52     39.0689  38.5267  44.5870   C.2       1 RES1   0.0000
 10009 C53     35.6696  39.0689  41.7299   C.2       1 RES1   0.0000
 10010 C54     35.6696  41.1877  38.5267   C.2       1 RES1   0.0000
 10011 C55     44.5870  41.1877  41.7299   C.2       1 RES1   0.0000
 10012 C56     44.5870  39.0689  38.5267   C.2       1 RES1   0.0000
 10013 C57     41.7299  35.6696  39.0689   C.2       1 RES1   0.0000
 10014 C58     38.5267  35.6696  41.1877   C.2       1 RES1   0.0000
 10015 C59     41.7299  44.5870  41.1877   C.2       1 RES1   0.0000
 10016 C60     38.5267  44.5870  39.0689   C.2       1 RES1   0.0000
 10017 C61     50.1051  47.4441  53.5044   C.2       1 RES1   0.0000
 10018 C62     47.9863  50.6473  53.5044   C.2       1 RES1   0.0000
 10019 C63     47.9863  47.4441  44.5870   C.2       1 RES1   0.0000
 10020 C64     50.1051  50.6473  44.5870   C.2       1 RES1   0.0000
 10021 C65     53.5044  50.1051  47.4441   C.2       1 RES1   0.0000
 10022 C66     53.5044  47.9863  50.6473   C.2       1 RES1   0.0000
 10023 C67     44.5870  47.9863  47.4441   C.2       1 RES1   0.0000
 10024 C68     44.5870  50.1051  50.6473   C.2       1 RES1   0.0000
 10025 C69     47.4441  53.5044  50.1051   C.2       1 RES1   0.0000
 10026 C70     50.6473  53.5044  47.9863   C.2       1 RES1   0.0000
 10027 C71     47.4441  44.5870  47.9863   C.2       1 RES1   0.0000
 10028 C72     50.6473  44.5870  50.1051   C.2       1 RES1   0.0000
 10029 C73     40.2478  40.7793  35.6714   C.2       1 RES1   0.0000
 10030 C74     40.0088  39.4773  35.6714   C.2       1 RES1   0.0000
 10031 C75     40.0088  40.7793  44.5852   C.2       1 RES1   0.0000
 10032 C76     40.2478  39.4773  44.5852   C.2       1 RES1   0.0000
 10033 C77     35.6714  40.2478  40.7793   C.2       1 RES1   0.0000
 10034 C78     35.6714  40.0088  39.4773   C.2       1 RES1   0.0000
 10035 C79     44.5852  40.0088  40.7793   C.2       1 RES1   0.0000
 10036 C80     44.5852  40.2478  39.4773   C.2       1 RES1   0.0000
 10037 C81     40.7793  35.6714  40.2478   C.2       1 RES1   0.0000
 10038 C82     39.4773  35.6714  40.0088   C.2       1 RES1   0.0000
 10039 C83     40.7793  44.5852  40.0088   C.2       1 RES1   0.0000
 10040 C84     39.4773  44.5852  40.2478   C.2       1 RES1   0.0000
 10041 C85     48.9262  48.3947  53.5026   C.2       1 RES1   0.0000
 10042 C86     49.1652  49.6967  53.5026   C.2       1 RES1   0.0000
 10043 C87     49.1652  48.3947  44.5888   C.2       1 RES1   0.0000
 10044 C88     48.9262  49.6967  44.5888   C.2       1 RES1   0.0000
 10045 C89     53.5026  48.9262  48.3947   C.2       1 RES1   0.0000
 10046 C90     53.5026  49.1652  49.6967   C.2       1 RES1   0.0000
 10047 C91     44.5888  49.1652  48.3947   C.2       1 RES1   0.0000
 10048 C92     44.5888  48.9262  49.6967   C.2       1 RES1   0.0000
 10049 C93     48.3947  53.5026  48.9262   C.2       1 RES1   0.0000
 10050 C94     49.6967  53.5026  49.1652   C.2       1 RES1   0.0000
 10051 C95     48.3947  44.5888  49.1652   C.2       1 RES1   0.0000
 10052 C96     49.6967  44.5888  48.9262   C.2       1 RES1   0.0000
 10053 H25     41.1199  41.1021  35.6714   H         1 RES1   0.0000
 10054 H26     39.1367  39.1545  35.6714   H         1 RES1   0.0000
 10055 H27     39.1367  41.1021  44.5852   H         1 RES1   0.0000
 10056 H28     41.1199  39.1545  44.5852   H         1 RES1   0.0000
 10057 H29     35.6714  41.1199  41.1021   H         1 RES1   0.0000
 10058 H30     35.6714  39.1367  39.1545   H         1 RES1   0.0000
 10059 H31     44.5852  39.1367  41.1021   H         1 RES1   0.0000
 10060 H32     44.5852  41.1199  39.1545   H         1 RES1   0.0000
 10061 H33     41.1021  35.6714  41.1199   H         1 RES1   0.0000
 10062 H34     39.1545  35.6714  39.1367   H         1 RES1   0.0000
 10063 H35     41.1021  44.5852  39.1367   H         1 RES1   0.0000
 10064 H36     39.1545  44.5852  41.1199   H         1 RES1   0.0000
 10065 H37     48.0541  48.0719  53.5026   H         1 RES1   0.0000
 10066 H38     50.0373  50.0195  53.5026   H         1 RES1   0.0000
 10067 H39     50.0373  48.0719  44.5888   H         1 RES1   0.0000
 10068 H40     48.0541  50.0195  44.5888   H         1 RES1   0.0000
 10069 H41     53.5026  48.0541  48.0719   H         1 RES1   0.0000
 10070 H42     53.5026  50.0373  50.0195   H         1 RES1   0.0000
 10071 H43     44.5888  50.0373  48.0719   H         1 RES1   0.0000
 10072 H44     44.5888  48.0541  50.0195   H         1 RES1   0.0000
 10073 H45     48.0719  53.5026  48.0541   H         1 RES1   0.0000
 10074 H46     50.0195  53.5026  50.0373   H         1 RES1   0.0000
 10075 H47     48.0719  44.5888  50.0373   H         1 RES1   0.0000
 10076 H48     50.0195  44.5888  48.0541   H         1 RES1   0.0000
 10077 O97     37.0340  46.2225  52.3505   O.3       1 RES1   0.0000
 10078 O98     43.2226  51.8689  52.3505   O.3       1 RES1   0.0000
 10079 O99     43.2226  46.2225  45.7409   O.3       1 RES1   0.0000
 10080 O101    52.3505  37.0340  46.2225   O.3       1 RES1   0.0000
 10081 O102    52.3505  43.2226  51.8689   O.3       1 RES1   0.0000
 10082 O103    45.7409  43.2226  46.2225   O.3       1 RES1   0.0000
 10083 O105    46.2225  52.3505  37.0340   O.3       1 RES1   0.0000
 10084 O106    51.8689  52.3505  43.2226   O.3       1 RES1   0.0000
 10085 O107    46.2225  45.7409  43.2226   O.3       1 RES1   0.0000
 10086 O111    45.9514  42.9515  43.4331   O.3       1 RES1   0.0000
 10087 O112    52.1400  37.3051  43.4331   O.3       1 RES1   0.0000
 10088 O115    43.4331  45.9514  42.9515   O.3       1 RES1   0.0000
 10089 O116    43.4331  52.1400  37.3051   O.3       1 RES1   0.0000
 10090 O119    42.9515  43.4331  45.9514   O.3       1 RES1   0.0000
 10091 O120    37.3051  43.4331  52.1400   O.3       1 RES1   0.0000
 10092 O123    43.5240  43.5240  43.5240   O.3       1 RES1   0.0000
 10093 O125    52.4414  45.6500  52.4414   O.3       1 RES1   0.0000
 10094 O126    45.6500  52.4414  52.4414   O.3       1 RES1   0.0000
 10095 O127    45.6500  45.6500  45.6500   O.3       1 RES1   0.0000
 10096 O128    52.4414  52.4414  45.6500   O.3       1 RES1   0.0000
 10097 O129    36.7326  45.8105  52.6198   O.3       1 RES1   0.0000
 10098 O130    43.5240  52.2809  52.6198   O.3       1 RES1   0.0000
 10099 O131    43.5240  45.8105  45.4716   O.3       1 RES1   0.0000
 10100 O133    52.6198  36.7326  45.8105   O.3       1 RES1   0.0000
 10101 O134    52.6198  43.5240  52.2809   O.3       1 RES1   0.0000
 10102 O135    45.4716  43.5240  45.8105   O.3       1 RES1   0.0000
 10103 O137    45.8105  52.6198  36.7326   O.3       1 RES1   0.0000
 10104 O138    52.2809  52.6198  43.5240   O.3       1 RES1   0.0000
 10105 O139    45.8105  45.4716  43.5240   O.3       1 RES1   0.0000
 10106 O143    45.6500  43.3635  43.7024   O.3       1 RES1   0.0000
 10107 O144    52.4414  36.8931  43.7024   O.3       1 RES1   0.0000
 10108 O147    43.7024  45.6500  43.3635   O.3       1 RES1   0.0000
 10109 O148    43.7024  52.4414  36.8931   O.3       1 RES1   0.0000
 10110 O151    43.3635  43.7024  45.6500   O.3       1 RES1   0.0000
 10111 O152    36.8931  43.7024  52.4414   O.3       1 RES1   0.0000
 10112 O155    43.1870  43.1870  43.1870   O.3       1 RES1   0.0000
 10113 O157    52.1044  45.9870  52.1044   O.3       1 RES1   0.0000
 10114 O158    45.9870  52.1044  52.1044   O.3       1 RES1   0.0000
 10115 O159    45.9870  45.9870  45.9870   O.3       1 RES1   0.0000
 10116 O160    52.1044  52.1044  45.9870   O.3       1 RES1   0.0000
 10117 Zr1     38.1281  44.7855  53.7163   Zr        1 RES1   0.0000
 10118 Zr1     55.9629  44.7855  35.8815   Zr        1 RES1   0.0000
 10119 Zr2     42.1285  53.3059  53.7163   Zr        1 RES1   0.0000
 10120 Zr4     55.9629  53.3059  44.3751   Zr        1 RES1   0.0000
 10121 Zr5     35.8815  55.9629  44.7855   Zr        1 RES1   0.0000
 10122 Zr5     53.7163  38.1281  44.7855   Zr        1 RES1   0.0000
 10123 Zr6     53.7163  42.1285  53.3059   Zr        1 RES1   0.0000
 10124 Zr8     44.3751  55.9629  53.3059   Zr        1 RES1   0.0000
 10125 Zr9     44.7855  35.8815  55.9629   Zr        1 RES1   0.0000
 10126 Zr9     44.7855  53.7163  38.1281   Zr        1 RES1   0.0000
 10127 Zr10    53.3059  53.7163  42.1285   Zr        1 RES1   0.0000
 10128 Zr12    53.3059  44.3751  55.9629   Zr        1 RES1   0.0000
 10129 Zr14    47.0455  53.7029  53.2925   Zr        1 RES1   0.0000
 10130 Zr16    51.0459  53.7029  44.7989   Zr        1 RES1   0.0000
 10131 Zr18    53.2925  47.0455  53.7029   Zr        1 RES1   0.0000
 10132 Zr20    44.7989  51.0459  53.7029   Zr        1 RES1   0.0000
 10133 Zr22    53.7029  53.2925  47.0455   Zr        1 RES1   0.0000
 10134 Zr24    53.7029  44.7989  51.0459   Zr        1 RES1   0.0000
 10135 O2      40.8595  55.1363  35.8123   O.2       1 RES1   0.0000
 10136 O4      39.3971  55.1363  44.4443   O.2       1 RES1   0.0000
 10137 O6      35.8123  40.8595  55.1363   O.2       1 RES1   0.0000
 10138 O8      44.4443  39.3971  55.1363   O.2       1 RES1   0.0000
 10139 O10     55.1363  35.8123  40.8595   O.2       1 RES1   0.0000
 10140 O12     55.1363  44.4443  39.3971   O.2       1 RES1   0.0000
 10141 O50     41.2055  53.3742  37.9221   O.2       1 RES1   0.0000
 10142 O52     39.0511  53.3742  42.3345   O.2       1 RES1   0.0000
 10143 O54     37.9221  41.2055  53.3742   O.2       1 RES1   0.0000
 10144 O56     42.3345  39.0511  53.3742   O.2       1 RES1   0.0000
 10145 O58     53.3742  37.9221  41.2055   O.2       1 RES1   0.0000
 10146 O60     53.3742  42.3345  39.0511   O.2       1 RES1   0.0000
 10147 O85     49.7805  44.1607  55.1202   O.2       1 RES1   0.0000
 10148 O86     48.3109  36.0959  55.1202   O.2       1 RES1   0.0000
 10149 O89     55.1202  49.7805  44.1607   O.2       1 RES1   0.0000
 10150 O90     55.1202  48.3109  36.0959   O.2       1 RES1   0.0000
 10151 O93     44.1607  55.1202  49.7805   O.2       1 RES1   0.0000
 10152 O94     36.0959  55.1202  48.3109   O.2       1 RES1   0.0000
 10153 O97     54.8688  46.2225  34.5157   O.3       1 RES1   0.0000
 10154 O100    54.8688  51.8689  45.7409   O.3       1 RES1   0.0000
 10155 O101    34.5157  54.8688  46.2225   O.3       1 RES1   0.0000
 10156 O104    45.7409  54.8688  51.8689   O.3       1 RES1   0.0000
 10157 O105    46.2225  34.5157  54.8688   O.3       1 RES1   0.0000
 10158 O108    51.8689  45.7409  54.8688   O.3       1 RES1   0.0000
 10159 O109    52.1400  42.9515  54.6583   O.3       1 RES1   0.0000
 10160 O110    45.9514  37.3051  54.6583   O.3       1 RES1   0.0000
 10161 O113    54.6583  52.1400  42.9515   O.3       1 RES1   0.0000
 10162 O114    54.6583  45.9514  37.3051   O.3       1 RES1   0.0000
 10163 O117    42.9515  54.6583  52.1400   O.3       1 RES1   0.0000
 10164 O118    37.3051  54.6583  45.9514   O.3       1 RES1   0.0000
 10165 O121    36.7326  43.5240  54.5674   O.3       1 RES1   0.0000
 10166 O121    54.5674  43.5240  36.7326   O.3       1 RES1   0.0000
 10167 O122    43.5240  36.7326  54.5674   O.3       1 RES1   0.0000
 10168 O122    43.5240  54.5674  36.7326   O.3       1 RES1   0.0000
 10169 O124    36.7326  54.5674  43.5240   O.3       1 RES1   0.0000
 10170 O124    54.5674  36.7326  43.5240   O.3       1 RES1   0.0000
 10171 O129    54.5674  45.8105  34.7850   O.3       1 RES1   0.0000
 10172 O132    54.5674  52.2809  45.4716   O.3       1 RES1   0.0000
 10173 O133    34.7850  54.5674  45.8105   O.3       1 RES1   0.0000
 10174 O136    45.4716  54.5674  52.2809   O.3       1 RES1   0.0000
 10175 O137    45.8105  34.7850  54.5674   O.3       1 RES1   0.0000
 10176 O140    52.2809  45.4716  54.5674   O.3       1 RES1   0.0000
 10177 O141    52.4414  43.3635  54.3890   O.3       1 RES1   0.0000
 10178 O142    45.6500  36.8931  54.3890   O.3       1 RES1   0.0000
 10179 O145    54.3890  52.4414  43.3635   O.3       1 RES1   0.0000
 10180 O146    54.3890  45.6500  36.8931   O.3       1 RES1   0.0000
 10181 O149    43.3635  54.3890  52.4414   O.3       1 RES1   0.0000
 10182 O150    36.8931  54.3890  45.6500   O.3       1 RES1   0.0000
 10183 O153    37.0696  43.1870  54.9044   O.3       1 RES1   0.0000
 10184 O153    54.9044  43.1870  37.0696   O.3       1 RES1   0.0000
 10185 O154    43.1870  37.0696  54.9044   O.3       1 RES1   0.0000
 10186 O154    43.1870  54.9044  37.0696   O.3       1 RES1   0.0000
 10187 O156    37.0696  54.9044  43.1870   O.3       1 RES1   0.0000
 10188 O156    54.9044  37.0696  43.1870   O.3       1 RES1   0.0000
@<TRIPOS>BOND
     1     1    25   un
     2     1    49   un
     3     1    73   un
     4     1   282    1
     5     1   289    1
     6     1   314    1
     7     1   321    1
     8     1   339   un
     9     1   350   un
    10     1   363   un
    11     1   374   un
    12     1   401   un
    13     1   413    1
    14     1   436    1
    15     1   449    1
    16     1   472    1
    17     2    20   un
    18     2    50   un
    19     2   284    1
    20     2   316    1
    21     2   343   un
    22     2   346   un
    23     2   370   un
    24     2   377   un
    25     2   389   un
    26     2   402   un
    27     2   415    1
    28     2   433    1
    29     2   440    1
    30     2   451    1
    31     2   469    1
    32     2   476    1
    33     3     7   un
    34     3    11   un
    35     3    19   un
    36     3    23   un
    37     3    27   un
    38     3    51   un
    39     3    75   un
    40     3    99   un
    41     3   267    1
    42     3   283    1
    43     3   287    1
    44     3   291    1
    45     3   299    1
    46     3   315    1
    47     3   319    1
    48     3   323    1
    49     4    22   un
    50     4    52   un
    51     4   100   un
    52     4   268    1
    53     4   281    1
    54     4   300    1
    55     4   313    1
    56     4   337   un
    57     4   348   un
    58     4   361   un
    59     4   378   un
    60     4   390   un
    61     4   435    1
    62     4   441    1
    63     4   471    1
    64     4   477    1
    65     5    29   un
    66     5    53   un
    67     5    77   un
    68     5   286    1
    69     5   292    1
    70     5   318    1
    71     5   324    1
    72     5   334   un
    73     5   347   un
    74     5   358   un
    75     5   371   un
    76     5   403   un
    77     5   417    1
    78     5   428    1
    79     5   453    1
    80     5   464    1
    81     6    24   un
    82     6    54   un
    83     6   288    1
    84     6   320    1
    85     6   329   un
    86     6   351   un
    87     6   353   un
    88     6   379   un
    89     6   391   un
    90     6   404   un
    91     6   419    1
    92     6   425    1
    93     6   437    1
    94     6   455    1
    95     6   461    1
    96     6   473    1
    97     7    11   un
    98     7    15   un
    99     7    23   un
   100     7    31   un
   101     7    55   un
   102     7    79   un
   103     7   103   un
   104     7   271    1
   105     7   279    1
   106     7   287    1
   107     7   291    1
   108     7   303    1
   109     7   311    1
   110     7   319    1
   111     7   323    1
   112     8    14   un
   113     8    56   un
   114     8   104   un
   115     8   272    1
   116     8   285    1
   117     8   304    1
   118     8   317    1
   119     8   332   un
   120     8   345   un
   121     8   369   un
   122     8   380   un
   123     8   392   un
   124     8   427    1
   125     8   439    1
   126     8   463    1
   127     8   475    1
   128     9    33   un
   129     9    57   un
   130     9    81   un
   131     9   278    1
   132     9   290    1
   133     9   310    1
   134     9   322    1
   135     9   331   un
   136     9   342   un
   137     9   355   un
   138     9   366   un
   139     9   405   un
   140     9   421    1
   141     9   432    1
   142     9   457    1
   143     9   468    1
   144    10    16   un
   145    10    58   un
   146    10   280    1
   147    10   312    1
   148    10   335   un
   149    10   338   un
   150    10   362   un
   151    10   381   un
   152    10   393   un
   153    10   406   un
   154    10   423    1
   155    10   429    1
   156    10   442    1
   157    10   459    1
   158    10   465    1
   159    10   478    1
   160    11    15   un
   161    11    19   un
   162    11    35   un
   163    11    59   un
   164    11    83   un
   165    11   107   un
   166    11   275    1
   167    11   279    1
   168    11   283    1
   169    11   291    1
   170    11   307    1
   171    11   311    1
   172    11   315    1
   173    11   323    1
   174    12    18   un
   175    12    60   un
   176    12   108   un
   177    12   276    1
   178    12   277    1
   179    12   308    1
   180    12   309    1
   181    12   330   un
   182    12   340   un
   183    12   354   un
   184    12   382   un
   185    12   394   un
   186    12   431    1
   187    12   438    1
   188    12   467    1
   189    12   474    1
   190    13    37   un
   191    13    61   un
   192    13    85   un
   193    13   270    1
   194    13   293    1
   195    13   302    1
   196    13   325    1
   197    13   341   un
   198    13   352   un
   199    13   365   un
   200    13   376   un
   201    13   407   un
   202    13   424    1
   203    13   426    1
   204    13   460    1
   205    13   462    1
   206    14    62   un
   207    14   272    1
   208    14   304    1
   209    14   345   un
   210    14   367   un
   211    14   369   un
   212    14   383   un
   213    14   395   un
   214    14   408   un
   215    14   422    1
   216    14   427    1
   217    14   445    1
   218    14   458    1
   219    14   463    1
   220    14   481    1
   221    15    19   un
   222    15    23   un
   223    15    39   un
   224    15    63   un
   225    15    87   un
   226    15   111   un
   227    15   271    1
   228    15   275    1
   229    15   279    1
   230    15   295    1
   231    15   303    1
   232    15   307    1
   233    15   311    1
   234    15   327    1
   235    16    64   un
   236    16   112   un
   237    16   269    1
   238    16   280    1
   239    16   301    1
   240    16   312    1
   241    16   338   un
   242    16   362   un
   243    16   372   un
   244    16   384   un
   245    16   396   un
   246    16   423    1
   247    16   448    1
   248    16   459    1
   249    16   484    1
   250    17    41   un
   251    17    65   un
   252    17    89   un
   253    17   274    1
   254    17   296    1
   255    17   306    1
   256    17   328    1
   257    17   336   un
   258    17   349   un
   259    17   360   un
   260    17   373   un
   261    17   409   un
   262    17   416    1
   263    17   430    1
   264    17   452    1
   265    17   466    1
   266    18    66   un
   267    18   276    1
   268    18   308    1
   269    18   330   un
   270    18   354   un
   271    18   375   un
   272    18   385   un
   273    18   397   un
   274    18   410   un
   275    18   414    1
   276    18   431    1
   277    18   444    1
   278    18   450    1
   279    18   467    1
   280    18   480    1
   281    19    23   un
   282    19    43   un
   283    19    67   un
   284    19    91   un
   285    19   115   un
   286    19   267    1
   287    19   275    1
   288    19   283    1
   289    19   295    1
   290    19   299    1
   291    19   307    1
   292    19   315    1
   293    19   327    1
   294    20    68   un
   295    20   116   un
   296    20   273    1
   297    20   284    1
   298    20   305    1
   299    20   316    1
   300    20   346   un
   301    20   356   un
   302    20   370   un
   303    20   386   un
   304    20   398   un
   305    20   415    1
   306    20   446    1
   307    20   451    1
   308    20   482    1
   309    21    45   un
   310    21    69   un
   311    21    93   un
   312    21   266    1
   313    21   294    1
   314    21   298    1
   315    21   326    1
   316    21   333   un
   317    21   344   un
   318    21   357   un
   319    21   368   un
   320    21   411   un
   321    21   420    1
   322    21   434    1
   323    21   456    1
   324    21   470    1
   325    22    70   un
   326    22   268    1
   327    22   300    1
   328    22   337   un
   329    22   359   un
   330    22   361   un
   331    22   387   un
   332    22   399   un
   333    22   412   un
   334    22   418    1
   335    22   435    1
   336    22   447    1
   337    22   454    1
   338    22   471    1
   339    22   483    1
   340    23    47   un
   341    23    71   un
   342    23    95   un
   343    23   119   un
   344    23   267    1
   345    23   271    1
   346    23   287    1
   347    23   295    1
   348    23   299    1
   349    23   303    1
   350    23   319    1
   351    23   327    1
   352    24    72   un
   353    24   120   un
   354    24   265    1
   355    24   288    1
   356    24   297    1
   357    24   320    1
   358    24   329   un
   359    24   353   un
   360    24   364   un
   361    24   388   un
   362    24   400   un
   363    24   419    1
   364    24   443    1
   365    24   455    1
   366    24   479    1
   367    25   193   un
   368    26   194   un
   369    26   331   un
   370    27   195   un
   371    28   196   un
   372    28   334   un
   373    29   197   un
   374    30   198   un
   375    30   339   un
   376    31   199   un
   377    32   200   un
   378    32   342   un
   379    33   201   un
   380    34   202   un
   381    34   347   un
   382    35   203   un
   383    36   204   un
   384    36   350   un
   385    37   205   un
   386    38   206   un
   387    38   357   un
   388    39   207   un
   389    40   208   un
   390    40   360   un
   391    41   209   un
   392    42   210   un
   393    42   365   un
   394    43   211   un
   395    44   212   un
   396    44   368   un
   397    45   213   un
   398    46   214   un
   399    46   373   un
   400    47   215   un
   401    48   216   un
   402    48   376   un
   403    49   121   un
   404    50   122   un
   405    51   123   un
   406    52   124   un
   407    53   125   un
   408    54   126   un
   409    55   127   un
   410    56   128   un
   411    57   129   un
   412    58   130   un
   413    59   131   un
   414    60   132   un
   415    61   133   un
   416    62   134   un
   417    63   135   un
   418    64   136   un
   419    65   137   un
   420    66   138   un
   421    67   139   un
   422    68   140   un
   423    69   141   un
   424    70   142   un
   425    71   143   un
   426    72   144   un
   427    73   204   un
   428    74   201   un
   429    74   331   un
   430    75   203   un
   431    76   202   un
   432    76   334   un
   433    77   196   un
   434    78   193   un
   435    78   339   un
   436    79   195   un
   437    80   194   un
   438    80   342   un
   439    81   200   un
   440    82   197   un
   441    82   347   un
   442    83   199   un
   443    84   198   un
   444    84   350   un
   445    85   216   un
   446    86   213   un
   447    86   357   un
   448    87   215   un
   449    88   214   un
   450    88   360   un
   451    89   208   un
   452    90   205   un
   453    90   365   un
   454    91   207   un
   455    92   206   un
   456    92   368   un
   457    93   212   un
   458    94   209   un
   459    94   373   un
   460    95   211   un
   461    96   210   un
   462    96   376   un
   463    97   144   un
   464    97   329   un
   465    98   141   un
   466    98   333   un
   467    99   143   un
   468   100   142   un
   469   101   136   un
   470   101   338   un
   471   102   133   un
   472   102   341   un
   473   103   135   un
   474   104   134   un
   475   105   140   un
   476   105   346   un
   477   106   137   un
   478   106   349   un
   479   107   139   un
   480   108   138   un
   481   109   132   un
   482   109   354   un
   483   110   129   un
   484   110   355   un
   485   111   131   un
   486   112   130   un
   487   113   124   un
   488   113   361   un
   489   114   121   un
   490   114   363   un
   491   115   123   un
   492   116   122   un
   493   117   128   un
   494   117   369   un
   495   118   125   un
   496   118   371   un
   497   119   127   un
   498   120   126   un
   499   121   145   un
   500   122   146   un
   501   123   147   un
   502   124   148   un
   503   125   149   un
   504   126   150   un
   505   127   151   un
   506   128   152   un
   507   129   153   un
   508   130   154   un
   509   131   155   un
   510   132   156   un
   511   133   157   un
   512   134   158   un
   513   135   159   un
   514   136   160   un
   515   137   161   un
   516   138   162   un
   517   139   163   un
   518   140   164   un
   519   141   165   un
   520   142   166   un
   521   143   167   un
   522   144   168   un
   523   145   146   un
   524   145   169    1
   525   146   170    1
   526   147   148   un
   527   147   171    1
   528   148   172    1
   529   149   150   un
   530   149   173    1
   531   150   174    1
   532   151   152   un
   533   151   175    1
   534   152   176    1
   535   153   154   un
   536   153   177    1
   537   154   178    1
   538   155   156   un
   539   155   179    1
   540   156   180    1
   541   157   158   un
   542   157   181    1
   543   158   182    1
   544   159   160   un
   545   159   183    1
   546   160   184    1
   547   161   162   un
   548   161   185    1
   549   162   186    1
   550   163   164   un
   551   163   187    1
   552   164   188    1
   553   165   166   un
   554   165   189    1
   555   166   190    1
   556   167   168   un
   557   167   191    1
   558   168   192    1
   559   193   217   un
   560   194   218   un
   561   195   219   un
   562   196   220   un
   563   197   221   un
   564   198   222   un
   565   199   223   un
   566   200   224   un
   567   201   225   un
   568   202   226   un
   569   203   227   un
   570   204   228   un
   571   205   229   un
   572   206   230   un
   573   207   231   un
   574   208   232   un
   575   209   233   un
   576   210   234   un
   577   211   235   un
   578   212   236   un
   579   213   237   un
   580   214   238   un
   581   215   239   un
   582   216   240   un
   583   217   218   un
   584   217   241    1
   585   218   242    1
   586   219   220   un
   587   219   243    1
   588   220   244    1
   589   221   222   un
   590   221   245    1
   591   222   246    1
   592   223   224   un
   593   223   247    1
   594   224   248    1
   595   225   226   un
   596   225   249    1
   597   226   250    1
   598   227   228   un
   599   227   251    1
   600   228   252    1
   601   229   230   un
   602   229   253    1
   603   230   254    1
   604   231   232   un
   605   231   255    1
   606   232   256    1
   607   233   234   un
   608   233   257    1
   609   234   258    1
   610   235   236   un
   611   235   259    1
   612   236   260    1
   613   237   238   un
   614   237   261    1
   615   238   262    1
   616   239   240   un
   617   239   263    1
   618   240   264    1
   619   265   297    1
   620   265   329    1
   621   265   364    1
   622   266   298    1
   623   266   333    1
   624   266   368    1
   625   267   299    1
   626   268   300    1
   627   268   361    1
   628   269   301    1
   629   269   338    1
   630   269   372    1
   631   270   302    1
   632   270   341    1
   633   270   376    1
   634   271   303    1
   635   272   304    1
   636   272   369    1
   637   273   305    1
   638   273   346    1
   639   273   356    1
   640   274   306    1
   641   274   349    1
   642   274   360    1
   643   275   307    1
   644   276   308    1
   645   276   354    1
   646   277   309    1
   647   277   340    1
   648   277   354    1
   649   278   310    1
   650   278   342    1
   651   278   355    1
   652   279   311    1
   653   280   312    1
   654   280   338    1
   655   281   313    1
   656   281   348    1
   657   281   361    1
   658   282   314    1
   659   282   350    1
   660   282   363    1
   661   283   315    1
   662   284   316    1
   663   284   346    1
   664   285   317    1
   665   285   332    1
   666   285   369    1
   667   286   318    1
   668   286   334    1
   669   286   371    1
   670   287   319    1
   671   288   320    1
   672   288   329    1
   673   289   321    1
   674   289   339    1
   675   289   350    1
   676   290   322    1
   677   290   331    1
   678   290   342    1
   679   291   323    1
   680   292   324    1
   681   292   334    1
   682   292   347    1
   683   293   325    1
   684   293   365    1
   685   293   376    1
   686   294   326    1
   687   294   357    1
   688   294   368    1
   689   295   327    1
   690   296   328    1
   691   296   360    1
   692   296   373    1
   693   297   329    1
   694   297   364    1
   695   298   333    1
   696   298   368    1
   697   300   361    1
   698   301   338    1
   699   301   372    1
   700   302   341    1
   701   302   376    1
   702   304   369    1
   703   305   346    1
   704   305   356    1
   705   306   349    1
   706   306   360    1
   707   308   354    1
   708   309   340    1
   709   309   354    1
   710   310   342    1
   711   310   355    1
   712   312   338    1
   713   313   348    1
   714   313   361    1
   715   314   350    1
   716   314   363    1
   717   316   346    1
   718   317   332    1
   719   317   369    1
   720   318   334    1
   721   318   371    1
   722   320   329    1
   723   321   339    1
   724   321   350    1
   725   322   331    1
   726   322   342    1
   727   324   334    1
   728   324   347    1
   729   325   365    1
   730   325   376    1
   731   326   357    1
   732   326   368    1
   733   328   360    1
   734   328   373    1
   735   329   351   un
   736   329   364   un
   737   329   437    1
   738   329   473    1
   739   329   503   un
   740   329   525   un
   741   329   549   un
   742   329   751    1
   743   329   778    1
   744   330   340   un
   745   330   375   un
   746   330   414    1
   747   330   431    1
   748   330   438    1
   749   330   450    1
   750   330   467    1
   751   330   474    1
   752   330  3719   un
   753   330  3741   un
   754   330  3765   un
   755   330  4057   un
   756   330  4084    1
   757   330  4110    1
   758   331   342   un
   759   331   366   un
   760   331   432    1
   761   331   468    1
   762   332   345   un
   763   332   367   un
   764   332   369   un
   765   332   439    1
   766   332   475    1
   767   332   504   un
   768   332   550   un
   769   332   871    1
   770   332   900    1
   771   333   344   un
   772   333   368   un
   773   333   434    1
   774   333   470    1
   775   333   526   un
   776   333   753    1
   777   333   780    1
   778   333   803   un
   779   333   825   un
   780   333   835   un
   781   333   877    1
   782   333   906    1
   783   334   347   un
   784   334   371   un
   785   335   338   un
   786   335   362   un
   787   335   372   un
   788   335   429    1
   789   335   442    1
   790   335   465    1
   791   335   478    1
   792   335  3722   un
   793   335  3768   un
   794   335  3970    1
   795   335  3996    1
   796   336   349   un
   797   336   373   un
   798   336   416    1
   799   336   430    1
   800   336   452    1
   801   336   466    1
   802   336  1652   un
   803   336  1732    1
   804   336  1759    1
   805   336  3744   un
   806   336  3790   un
   807   336  4038   un
   808   336  4048   un
   809   336  4083    1
   810   336  4109    1
   811   337   348   un
   812   337   359   un
   813   337   418    1
   814   337   435    1
   815   337   441    1
   816   337   454    1
   817   337   471    1
   818   337   477    1
   819   337  1361   un
   820   337  1385   un
   821   337  1407   un
   822   337  1702   un
   823   337  1721    1
   824   337  1748    1
   825   338   372   un
   826   338   442    1
   827   338   478    1
   828   338  3723   un
   829   338  3745   un
   830   338  3769   un
   831   338  3970    1
   832   338  3996    1
   833   339   350   un
   834   339   374   un
   835   339   436    1
   836   339   472    1
   837   340   354   un
   838   340   375   un
   839   340   438    1
   840   340   474    1
   841   340  3724   un
   842   340  3770   un
   843   340  4084    1
   844   340  4110    1
   845   341   352   un
   846   341   376   un
   847   341   426    1
   848   341   462    1
   849   341   792   un
   850   341   875    1
   851   341   904    1
   852   341  3746   un
   853   341  3972    1
   854   341  3998    1
   855   341  4039   un
   856   341  4049   un
   857   342   355   un
   858   343   346   un
   859   343   356   un
   860   343   370   un
   861   343   433    1
   862   343   440    1
   863   343   469    1
   864   343   476    1
   865   343  1364   un
   866   343  1410   un
   867   343  1605    1
   868   343  1632    1
   869   344   357   un
   870   344   420    1
   871   344   434    1
   872   344   456    1
   873   344   470    1
   874   344   803   un
   875   344   877    1
   876   344   906    1
   877   344  1388   un
   878   344  1434   un
   879   344  1683   un
   880   344  1693   un
   881   344  1720    1
   882   344  1747    1
   883   345   367   un
   884   345   422    1
   885   345   427    1
   886   345   439    1
   887   345   458    1
   888   345   463    1
   889   345   475    1
   890   345   509   un
   891   345   533   un
   892   345   555   un
   893   345   847   un
   894   345   871    1
   895   345   900    1
   896   346   356   un
   897   346   440    1
   898   346   476    1
   899   346  1365   un
   900   346  1389   un
   901   346  1411   un
   902   346  1605    1
   903   346  1632    1
   904   347   358   un
   905   347   428    1
   906   347   464    1
   907   348   359   un
   908   348   361   un
   909   348   441    1
   910   348   477    1
   911   348  1366   un
   912   348  1412   un
   913   348  1721    1
   914   348  1748    1
   915   349   360   un
   916   349   430    1
   917   349   466    1
   918   349  1390   un
   919   349  1607    1
   920   349  1634    1
   921   349  1652   un
   922   349  1684   un
   923   349  1694   un
   924   349  1732    1
   925   349  1759    1
   926   350   363   un
   927   351   353   un
   928   351   364   un
   929   351   425    1
   930   351   437    1
   931   351   461    1
   932   351   473    1
   933   351   512   un
   934   351   558   un
   935   351   751    1
   936   351   778    1
   937   352   365   un
   938   352   424    1
   939   352   426    1
   940   352   460    1
   941   352   462    1
   942   352   536   un
   943   352   582   un
   944   352   792   un
   945   352   830   un
   946   352   840   un
   947   352   870    1
   948   352   875    1
   949   352   899    1
   950   352   904    1
   951   353   364   un
   952   353   419    1
   953   353   425    1
   954   353   443    1
   955   353   455    1
   956   353   461    1
   957   353   479    1
   958   354   375   un
   959   354   444    1
   960   354   480    1
   961   355   366   un
   962   355   421    1
   963   355   457    1
   964   356   370   un
   965   356   446    1
   966   356   482    1
   967   356  1440   un
   968   356  1605    1
   969   356  1632    1
   970   357   368   un
   971   357   420    1
   972   357   456    1
   973   357   745    1
   974   357   772    1
   975   357   803   un
   976   357  1394   un
   977   357  1705   un
   978   357  1720    1
   979   357  1747    1
   980   358   371   un
   981   358   417    1
   982   358   428    1
   983   358   453    1
   984   358   464    1
   985   359   361   un
   986   359   418    1
   987   359   447    1
   988   359   454    1
   989   359   483    1
   990   359  1721    1
   991   359  1748    1
   992   360   373   un
   993   360  1396   un
   994   360  1442   un
   995   360  1597    1
   996   360  1607    1
   997   360  1624    1
   998   360  1634    1
   999   360  1652   un
  1000   361   447    1
  1001   361   483    1
  1002   362   372   un
  1003   362   423    1
  1004   362   429    1
  1005   362   448    1
  1006   362   459    1
  1007   362   465    1
  1008   362   484    1
  1009   363   374   un
  1010   363   413    1
  1011   363   449    1
  1012   364   443    1
  1013   364   479    1
  1014   364   586   un
  1015   364   751    1
  1016   364   778    1
  1017   365   376   un
  1018   365   424    1
  1019   365   460    1
  1020   365   542   un
  1021   365   792   un
  1022   365   852   un
  1023   365   855    1
  1024   365   870    1
  1025   365   884    1
  1026   365   899    1
  1027   366   421    1
  1028   366   432    1
  1029   366   457    1
  1030   366   468    1
  1031   367   369   un
  1032   367   422    1
  1033   367   445    1
  1034   367   458    1
  1035   367   481    1
  1036   367   871    1
  1037   367   900    1
  1038   368   544   un
  1039   368   588   un
  1040   368   745    1
  1041   368   753    1
  1042   368   772    1
  1043   368   780    1
  1044   368   803   un
  1045   369   445    1
  1046   369   481    1
  1047   370   415    1
  1048   370   433    1
  1049   370   446    1
  1050   370   451    1
  1051   370   469    1
  1052   370   482    1
  1053   371   417    1
  1054   371   453    1
  1055   372   448    1
  1056   372   484    1
  1057   372  3806   un
  1058   372  3970    1
  1059   372  3996    1
  1060   373   416    1
  1061   373   452    1
  1062   373  1597    1
  1063   373  1624    1
  1064   373  1652   un
  1065   373  3762   un
  1066   373  4066   un
  1067   373  4083    1
  1068   373  4109    1
  1069   374   413    1
  1070   374   436    1
  1071   374   449    1
  1072   374   472    1
  1073   375   414    1
  1074   375   444    1
  1075   375   450    1
  1076   375   480    1
  1077   375  4084    1
  1078   375  4110    1
  1079   376   792   un
  1080   376   855    1
  1081   376   884    1
  1082   376  3764   un
  1083   376  3808   un
  1084   376  3972    1
  1085   376  3998    1
  1086   377  1522   un
  1087   378  1524   un
  1088   379   670   un
  1089   380   672   un
  1090   381  3890   un
  1091   382  3892   un
  1092   389  1529   un
  1093   390  1530   un
  1094   391   665   un
  1095   392   666   un
  1096   393  3885   un
  1097   394  3886   un
  1098   407   604   un
  1099   408   601   un
  1100   409  3812   un
  1101   410  3809   un
  1102   411  1456   un
  1103   412  1453   un
  1104   413   449    1
  1105   414   450    1
  1106   415   451    1
  1107   416   452    1
  1108   417   453    1
  1109   418   454    1
  1110   419   455    1
  1111   420   456    1
  1112   421   457    1
  1113   422   458    1
  1114   423   459    1
  1115   424   460    1
  1116   425   461    1
  1117   426   462    1
  1118   427   463    1
  1119   428   464    1
  1120   429   465    1
  1121   430   466    1
  1122   431   467    1
  1123   432   468    1
  1124   433   469    1
  1125   434   470    1
  1126   435   471    1
  1127   436   472    1
  1128   437   473    1
  1129   438   474    1
  1130   439   475    1
  1131   440   476    1
  1132   441   477    1
  1133   442   478    1
  1134   443   479    1
  1135   444   480    1
  1136   445   481    1
  1137   446   482    1
  1138   447   483    1
  1139   448   484    1
  1140   485   489   un
  1141   485   492   un
  1142   485   498   un
  1143   485   501   un
  1144   485   505   un
  1145   485   527   un
  1146   485   551   un
  1147   485   573   un
  1148   485   739    1
  1149   485   752    1
  1150   485   756    1
  1151   485   758    1
  1152   485   766    1
  1153   485   779    1
  1154   485   783    1
  1155   485   785    1
  1156   486   500   un
  1157   486   528   un
  1158   486   574   un
  1159   486   740    1
  1160   486   750    1
  1161   486   767    1
  1162   486   777    1
  1163   486   798   un
  1164   486   805   un
  1165   486   814   un
  1166   486   826   un
  1167   486   836   un
  1168   486   873    1
  1169   486   878    1
  1170   486   902    1
  1171   486   907    1
  1172   487   507   un
  1173   487   529   un
  1174   487   553   un
  1175   487   755    1
  1176   487   759    1
  1177   487   782    1
  1178   487   786    1
  1179   487   795   un
  1180   487   804   un
  1181   487   811   un
  1182   487   821   un
  1183   487   845   un
  1184   487   857    1
  1185   487   867    1
  1186   487   886    1
  1187   487   896    1
  1188   488   502   un
  1189   488   530   un
  1190   488   757    1
  1191   488   784    1
  1192   488   791   un
  1193   488   807   un
  1194   488   809   un
  1195   488   827   un
  1196   488   837   un
  1197   488   846   un
  1198   488   859    1
  1199   488   864    1
  1200   488   874    1
  1201   488   888    1
  1202   488   893    1
  1203   488   903    1
  1204   489   492   un
  1205   489   495   un
  1206   489   501   un
  1207   489   508   un
  1208   489   531   un
  1209   489   554   un
  1210   489   577   un
  1211   489   743    1
  1212   489   748    1
  1213   489   756    1
  1214   489   758    1
  1215   489   770    1
  1216   489   775    1
  1217   489   783    1
  1218   489   785    1
  1219   490   494   un
  1220   490   532   un
  1221   490   578   un
  1222   490   744    1
  1223   490   754    1
  1224   490   771    1
  1225   490   781    1
  1226   490   793   un
  1227   490   802   un
  1228   490   820   un
  1229   490   828   un
  1230   490   838   un
  1231   490   866    1
  1232   490   876    1
  1233   490   895    1
  1234   490   905    1
  1235   491   496   un
  1236   491   534   un
  1237   491   749    1
  1238   491   776    1
  1239   491   796   un
  1240   491   799   un
  1241   491   815   un
  1242   491   829   un
  1243   491   839   un
  1244   491   848   un
  1245   491   862    1
  1246   491   868    1
  1247   491   879    1
  1248   491   891    1
  1249   491   897    1
  1250   491   908    1
  1251   492   495   un
  1252   492   498   un
  1253   492   511   un
  1254   492   535   un
  1255   492   557   un
  1256   492   581   un
  1257   492   747    1
  1258   492   748    1
  1259   492   752    1
  1260   492   758    1
  1261   492   774    1
  1262   492   775    1
  1263   492   779    1
  1264   492   785    1
  1265   493   513   un
  1266   493   537   un
  1267   493   559   un
  1268   493   742    1
  1269   493   760    1
  1270   493   769    1
  1271   493   787    1
  1272   493   800   un
  1273   493   808   un
  1274   493   817   un
  1275   493   824   un
  1276   493   849   un
  1277   493   863    1
  1278   493   865    1
  1279   493   892    1
  1280   493   894    1
  1281   494   538   un
  1282   494   744    1
  1283   494   771    1
  1284   494   802   un
  1285   494   818   un
  1286   494   820   un
  1287   494   831   un
  1288   494   841   un
  1289   494   850   un
  1290   494   861    1
  1291   494   866    1
  1292   494   881    1
  1293   494   890    1
  1294   494   895    1
  1295   494   910    1
  1296   495   498   un
  1297   495   501   un
  1298   495   515   un
  1299   495   539   un
  1300   495   561   un
  1301   495   583   un
  1302   495   743    1
  1303   495   747    1
  1304   495   748    1
  1305   495   762    1
  1306   495   770    1
  1307   495   774    1
  1308   495   775    1
  1309   495   789    1
  1310   496   540   un
  1311   496   584   un
  1312   496   741    1
  1313   496   749    1
  1314   496   768    1
  1315   496   776    1
  1316   496   799   un
  1317   496   815   un
  1318   496   822   un
  1319   496   832   un
  1320   496   842   un
  1321   496   862    1
  1322   496   883    1
  1323   496   891    1
  1324   496   912    1
  1325   497   517   un
  1326   497   541   un
  1327   497   563   un
  1328   497   746    1
  1329   497   763    1
  1330   497   773    1
  1331   497   790    1
  1332   497   797   un
  1333   497   806   un
  1334   497   813   un
  1335   497   823   un
  1336   497   851   un
  1337   497   856    1
  1338   497   869    1
  1339   497   885    1
  1340   497   898    1
  1341   498   501   un
  1342   498   519   un
  1343   498   543   un
  1344   498   565   un
  1345   498   587   un
  1346   498   739    1
  1347   498   747    1
  1348   498   752    1
  1349   498   762    1
  1350   498   766    1
  1351   498   774    1
  1352   498   779    1
  1353   498   789    1
  1354   499   521   un
  1355   499   545   un
  1356   499   567   un
  1357   499   738    1
  1358   499   761    1
  1359   499   765    1
  1360   499   788    1
  1361   499   794   un
  1362   499   801   un
  1363   499   810   un
  1364   499   819   un
  1365   499   853   un
  1366   499   860    1
  1367   499   872    1
  1368   499   889    1
  1369   499   901    1
  1370   500   546   un
  1371   500   740    1
  1372   500   767    1
  1373   500   798   un
  1374   500   812   un
  1375   500   814   un
  1376   500   833   un
  1377   500   843   un
  1378   500   854   un
  1379   500   858    1
  1380   500   873    1
  1381   500   882    1
  1382   500   887    1
  1383   500   902    1
  1384   500   911    1
  1385   501   523   un
  1386   501   547   un
  1387   501   569   un
  1388   501   591   un
  1389   501   739    1
  1390   501   743    1
  1391   501   756    1
  1392   501   762    1
  1393   501   766    1
  1394   501   770    1
  1395   501   783    1
  1396   501   789    1
  1397   502   548   un
  1398   502   592   un
  1399   502   737    1
  1400   502   757    1
  1401   502   764    1
  1402   502   784    1
  1403   502   791   un
  1404   502   809   un
  1405   502   816   un
  1406   502   834   un
  1407   502   844   un
  1408   502   859    1
  1409   502   880    1
  1410   502   888    1
  1411   502   909    1
  1412   503   665   un
  1413   504   666   un
  1414   505   667   un
  1415   506   668   un
  1416   506   795   un
  1417   507   669   un
  1418   508   671   un
  1419   509   673   un
  1420   510   674   un
  1421   510   804   un
  1422   511   675   un
  1423   512   676   un
  1424   513   677   un
  1425   514   678   un
  1426   514   810   un
  1427   515   679   un
  1428   516   680   un
  1429   516   813   un
  1430   517   681   un
  1431   518   682   un
  1432   518   817   un
  1433   519   683   un
  1434   520   684   un
  1435   520   819   un
  1436   521   685   un
  1437   522   686   un
  1438   522   823   un
  1439   523   687   un
  1440   524   688   un
  1441   524   824   un
  1442   525   593   un
  1443   526   594   un
  1444   527   595   un
  1445   528   596   un
  1446   529   597   un
  1447   530   598   un
  1448   531   599   un
  1449   532   600   un
  1450   533   601   un
  1451   534   602   un
  1452   535   603   un
  1453   536   604   un
  1454   537   605   un
  1455   538   606   un
  1456   539   607   un
  1457   540   608   un
  1458   541   609   un
  1459   542   610   un
  1460   543   611   un
  1461   544   612   un
  1462   545   613   un
  1463   546   614   un
  1464   547   615   un
  1465   548   616   un
  1466   549   676   un
  1467   550   673   un
  1468   551   675   un
  1469   552   674   un
  1470   552   795   un
  1471   553   668   un
  1472   554   667   un
  1473   555   672   un
  1474   556   669   un
  1475   556   804   un
  1476   557   671   un
  1477   558   670   un
  1478   559   688   un
  1479   560   685   un
  1480   560   810   un
  1481   561   687   un
  1482   562   686   un
  1483   562   813   un
  1484   563   680   un
  1485   564   677   un
  1486   564   817   un
  1487   565   679   un
  1488   566   678   un
  1489   566   819   un
  1490   567   684   un
  1491   568   681   un
  1492   568   823   un
  1493   569   683   un
  1494   570   682   un
  1495   570   824   un
  1496   571   616   un
  1497   571   791   un
  1498   572   613   un
  1499   572   794   un
  1500   573   615   un
  1501   574   614   un
  1502   575   608   un
  1503   575   799   un
  1504   576   605   un
  1505   576   800   un
  1506   577   607   un
  1507   578   606   un
  1508   579   612   un
  1509   579   803   un
  1510   580   609   un
  1511   580   806   un
  1512   581   611   un
  1513   582   610   un
  1514   583   603   un
  1515   584   602   un
  1516   585   596   un
  1517   585   814   un
  1518   586   593   un
  1519   587   595   un
  1520   588   594   un
  1521   589   600   un
  1522   589   820   un
  1523   590   597   un
  1524   590   821   un
  1525   591   599   un
  1526   592   598   un
  1527   593   617   un
  1528   594   618   un
  1529   595   619   un
  1530   596   620   un
  1531   597   621   un
  1532   598   622   un
  1533   599   623   un
  1534   600   624   un
  1535   601   625   un
  1536   602   626   un
  1537   603   627   un
  1538   604   628   un
  1539   605   629   un
  1540   606   630   un
  1541   607   631   un
  1542   608   632   un
  1543   609   633   un
  1544   610   634   un
  1545   611   635   un
  1546   612   636   un
  1547   613   637   un
  1548   614   638   un
  1549   615   639   un
  1550   616   640   un
  1551   617   618   un
  1552   617   641    1
  1553   618   642    1
  1554   619   620   un
  1555   619   643    1
  1556   620   644    1
  1557   621   622   un
  1558   621   645    1
  1559   622   646    1
  1560   623   624   un
  1561   623   647    1
  1562   624   648    1
  1563   625   626   un
  1564   625   649    1
  1565   626   650    1
  1566   627   628   un
  1567   627   651    1
  1568   628   652    1
  1569   629   630   un
  1570   629   653    1
  1571   630   654    1
  1572   631   632   un
  1573   631   655    1
  1574   632   656    1
  1575   633   634   un
  1576   633   657    1
  1577   634   658    1
  1578   635   636   un
  1579   635   659    1
  1580   636   660    1
  1581   637   638   un
  1582   637   661    1
  1583   638   662    1
  1584   639   640   un
  1585   639   663    1
  1586   640   664    1
  1587   665   689   un
  1588   666   690   un
  1589   667   691   un
  1590   668   692   un
  1591   669   693   un
  1592   670   694   un
  1593   671   695   un
  1594   672   696   un
  1595   673   697   un
  1596   674   698   un
  1597   675   699   un
  1598   676   700   un
  1599   677   701   un
  1600   678   702   un
  1601   679   703   un
  1602   680   704   un
  1603   681   705   un
  1604   682   706   un
  1605   683   707   un
  1606   684   708   un
  1607   685   709   un
  1608   686   710   un
  1609   687   711   un
  1610   688   712   un
  1611   689   690   un
  1612   689   713    1
  1613   690   714    1
  1614   691   692   un
  1615   691   715    1
  1616   692   716    1
  1617   693   694   un
  1618   693   717    1
  1619   694   718    1
  1620   695   696   un
  1621   695   719    1
  1622   696   720    1
  1623   697   698   un
  1624   697   721    1
  1625   698   722    1
  1626   699   700   un
  1627   699   723    1
  1628   700   724    1
  1629   701   702   un
  1630   701   725    1
  1631   702   726    1
  1632   703   704   un
  1633   703   727    1
  1634   704   728    1
  1635   705   706   un
  1636   705   729    1
  1637   706   730    1
  1638   707   708   un
  1639   707   731    1
  1640   708   732    1
  1641   709   710   un
  1642   709   733    1
  1643   710   734    1
  1644   711   712   un
  1645   711   735    1
  1646   712   736    1
  1647   737   764    1
  1648   737   791    1
  1649   737   816    1
  1650   738   765    1
  1651   738   794    1
  1652   738   819    1
  1653   739   766    1
  1654   740   767    1
  1655   740   814    1
  1656   741   768    1
  1657   741   799    1
  1658   741   822    1
  1659   742   769    1
  1660   742   800    1
  1661   742   824    1
  1662   743   770    1
  1663   744   771    1
  1664   744   820    1
  1665   745   772    1
  1666   745   803    1
  1667   746   773    1
  1668   746   806    1
  1669   746   813    1
  1670   747   774    1
  1671   748   775    1
  1672   749   776    1
  1673   749   799    1
  1674   750   777    1
  1675   750   805    1
  1676   750   814    1
  1677   751   778    1
  1678   752   779    1
  1679   753   780    1
  1680   753   803    1
  1681   754   781    1
  1682   754   793    1
  1683   754   820    1
  1684   755   782    1
  1685   755   795    1
  1686   755   821    1
  1687   756   783    1
  1688   757   784    1
  1689   757   791    1
  1690   758   785    1
  1691   759   786    1
  1692   759   795    1
  1693   759   804    1
  1694   760   787    1
  1695   760   817    1
  1696   760   824    1
  1697   761   788    1
  1698   761   810    1
  1699   761   819    1
  1700   762   789    1
  1701   763   790    1
  1702   763   813    1
  1703   763   823    1
  1704   764   791    1
  1705   764   816    1
  1706   765   794    1
  1707   765   819    1
  1708   767   814    1
  1709   768   799    1
  1710   768   822    1
  1711   769   800    1
  1712   769   824    1
  1713   771   820    1
  1714   772   803    1
  1715   773   806    1
  1716   773   813    1
  1717   776   799    1
  1718   777   805    1
  1719   777   814    1
  1720   780   803    1
  1721   781   793    1
  1722   781   820    1
  1723   782   795    1
  1724   782   821    1
  1725   784   791    1
  1726   786   795    1
  1727   786   804    1
  1728   787   817    1
  1729   787   824    1
  1730   788   810    1
  1731   788   819    1
  1732   790   813    1
  1733   790   823    1
  1734   791   807   un
  1735   791   816   un
  1736   791   874    1
  1737   791   903    1
  1738   791   931   un
  1739   791   953   un
  1740   791   977   un
  1741   791  1179    1
  1742   791  1206    1
  1743   792   855    1
  1744   792   870    1
  1745   792   875    1
  1746   792   884    1
  1747   792   899    1
  1748   792   904    1
  1749   792  3787   un
  1750   792  3972    1
  1751   792  3998    1
  1752   792  4132   un
  1753   792  4152   un
  1754   792  4176   un
  1755   793   802   un
  1756   793   818   un
  1757   793   820   un
  1758   793   876    1
  1759   793   905    1
  1760   793   932   un
  1761   793   978   un
  1762   793  1299    1
  1763   793  1328    1
  1764   794   801   un
  1765   794   819   un
  1766   794   872    1
  1767   794   901    1
  1768   794   954   un
  1769   794  1181    1
  1770   794  1208    1
  1771   794  1231   un
  1772   794  1253   un
  1773   794  1263   un
  1774   794  1305    1
  1775   794  1334    1
  1776   795   804   un
  1777   795   821   un
  1778   796   799   un
  1779   796   815   un
  1780   796   822   un
  1781   796   868    1
  1782   796   879    1
  1783   796   897    1
  1784   796   908    1
  1785   796  4135   un
  1786   796  4179   un
  1787   796  4374    1
  1788   796  4396    1
  1789   797   806   un
  1790   797   823   un
  1791   797   856    1
  1792   797   869    1
  1793   797   885    1
  1794   797   898    1
  1795   797  2056   un
  1796   797  2116    1
  1797   797  2137    1
  1798   797  4155   un
  1799   797  4199   un
  1800   797  4427   un
  1801   797  4435   un
  1802   797  4463    1
  1803   797  4483    1
  1804   798   805   un
  1805   798   812   un
  1806   798   858    1
  1807   798   873    1
  1808   798   878    1
  1809   798   887    1
  1810   798   902    1
  1811   798   907    1
  1812   798  1779   un
  1813   798  1801   un
  1814   798  1823   un
  1815   798  2090   un
  1816   798  2107    1
  1817   798  2128    1
  1818   799   822   un
  1819   799   879    1
  1820   799   908    1
  1821   799  4136   un
  1822   799  4156   un
  1823   799  4180   un
  1824   799  4374    1
  1825   799  4396    1
  1826   800   808   un
  1827   800   824   un
  1828   800   865    1
  1829   800   894    1
  1830   800  1220   un
  1831   800  1303    1
  1832   800  1332    1
  1833   800  4157   un
  1834   800  4376    1
  1835   800  4398    1
  1836   800  4428   un
  1837   800  4436   un
  1838   801   810   un
  1839   801   860    1
  1840   801   872    1
  1841   801   889    1
  1842   801   901    1
  1843   801  1231   un
  1844   801  1305    1
  1845   801  1334    1
  1846   801  1804   un
  1847   801  1848   un
  1848   801  2077   un
  1849   801  2085   un
  1850   801  2106    1
  1851   801  2127    1
  1852   802   818   un
  1853   802   861    1
  1854   802   866    1
  1855   802   876    1
  1856   802   890    1
  1857   802   895    1
  1858   802   905    1
  1859   802   937   un
  1860   802   961   un
  1861   802   983   un
  1862   802  1275   un
  1863   802  1299    1
  1864   802  1328    1
  1865   803   877    1
  1866   803   906    1
  1867   803  1720    1
  1868   803  1747    1
  1869   803  1781   un
  1870   803  1805   un
  1871   803  1825   un
  1872   804   811   un
  1873   804   867    1
  1874   804   896    1
  1875   805   812   un
  1876   805   814   un
  1877   805   878    1
  1878   805   907    1
  1879   805  1782   un
  1880   805  1826   un
  1881   805  2107    1
  1882   805  2128    1
  1883   806   813   un
  1884   806   869    1
  1885   806   898    1
  1886   806  1806   un
  1887   806  2016    1
  1888   806  2039    1
  1889   806  2056   un
  1890   806  2078   un
  1891   806  2086   un
  1892   806  2116    1
  1893   806  2137    1
  1894   807   809   un
  1895   807   816   un
  1896   807   864    1
  1897   807   874    1
  1898   807   893    1
  1899   807   903    1
  1900   807   940   un
  1901   807   986   un
  1902   807  1179    1
  1903   807  1206    1
  1904   808   817   un
  1905   808   863    1
  1906   808   865    1
  1907   808   892    1
  1908   808   894    1
  1909   808   964   un
  1910   808  1010   un
  1911   808  1220   un
  1912   808  1258   un
  1913   808  1268   un
  1914   808  1298    1
  1915   808  1303    1
  1916   808  1327    1
  1917   808  1332    1
  1918   809   816   un
  1919   809   859    1
  1920   809   864    1
  1921   809   880    1
  1922   809   888    1
  1923   809   893    1
  1924   809   909    1
  1925   810   819   un
  1926   810   860    1
  1927   810   889    1
  1928   810  1173    1
  1929   810  1200    1
  1930   810  1231   un
  1931   810  1810   un
  1932   810  2093   un
  1933   810  2106    1
  1934   810  2127    1
  1935   811   821   un
  1936   811   857    1
  1937   811   867    1
  1938   811   886    1
  1939   811   896    1
  1940   812   814   un
  1941   812   858    1
  1942   812   882    1
  1943   812   887    1
  1944   812   911    1
  1945   812  2107    1
  1946   812  2128    1
  1947   813   823   un
  1948   813  1812   un
  1949   813  1854   un
  1950   813  2009    1
  1951   813  2016    1
  1952   813  2032    1
  1953   813  2039    1
  1954   813  2056   un
  1955   814   882    1
  1956   814   911    1
  1957   815   822   un
  1958   815   862    1
  1959   815   868    1
  1960   815   883    1
  1961   815   891    1
  1962   815   897    1
  1963   815   912    1
  1964   816   880    1
  1965   816   909    1
  1966   816  1014   un
  1967   816  1179    1
  1968   816  1206    1
  1969   817   824   un
  1970   817   863    1
  1971   817   892    1
  1972   817   970   un
  1973   817  1220   un
  1974   817  1280   un
  1975   817  1283    1
  1976   817  1298    1
  1977   817  1312    1
  1978   817  1327    1
  1979   818   820   un
  1980   818   861    1
  1981   818   881    1
  1982   818   890    1
  1983   818   910    1
  1984   818  1299    1
  1985   818  1328    1
  1986   819   972   un
  1987   819  1016   un
  1988   819  1173    1
  1989   819  1181    1
  1990   819  1200    1
  1991   819  1208    1
  1992   819  1231   un
  1993   820   881    1
  1994   820   910    1
  1995   821   857    1
  1996   821   886    1
  1997   822   883    1
  1998   822   912    1
  1999   822  4213   un
  2000   822  4374    1
  2001   822  4396    1
  2002   823   856    1
  2003   823   885    1
  2004   823  2009    1
  2005   823  2032    1
  2006   823  2056   un
  2007   823  4173   un
  2008   823  4449   un
  2009   823  4463    1
  2010   823  4483    1
  2011   824  1220   un
  2012   824  1283    1
  2013   824  1312    1
  2014   824  4175   un
  2015   824  4215   un
  2016   824  4376    1
  2017   824  4398    1
  2018   825  1934   un
  2019   826  1936   un
  2020   827  1098   un
  2021   828  1100   un
  2022   829  4297   un
  2023   830  4299   un
  2024   835  1941   un
  2025   836  1942   un
  2026   837  1093   un
  2027   838  1094   un
  2028   839  4292   un
  2029   840  4293   un
  2030   849  1032   un
  2031   850  1029   un
  2032   851  4219   un
  2033   852  4216   un
  2034   853  1868   un
  2035   854  1865   un
  2036   855   884    1
  2037   856   885    1
  2038   857   886    1
  2039   858   887    1
  2040   859   888    1
  2041   860   889    1
  2042   861   890    1
  2043   862   891    1
  2044   863   892    1
  2045   864   893    1
  2046   865   894    1
  2047   866   895    1
  2048   867   896    1
  2049   868   897    1
  2050   869   898    1
  2051   870   899    1
  2052   871   900    1
  2053   872   901    1
  2054   873   902    1
  2055   874   903    1
  2056   875   904    1
  2057   876   905    1
  2058   877   906    1
  2059   878   907    1
  2060   879   908    1
  2061   880   909    1
  2062   881   910    1
  2063   882   911    1
  2064   883   912    1
  2065   913   917   un
  2066   913   920   un
  2067   913   926   un
  2068   913   929   un
  2069   913   933   un
  2070   913   955   un
  2071   913   979   un
  2072   913  1001   un
  2073   913  1167    1
  2074   913  1180    1
  2075   913  1184    1
  2076   913  1186    1
  2077   913  1194    1
  2078   913  1207    1
  2079   913  1211    1
  2080   913  1213    1
  2081   914   928   un
  2082   914   956   un
  2083   914  1002   un
  2084   914  1168    1
  2085   914  1178    1
  2086   914  1195    1
  2087   914  1205    1
  2088   914  1226   un
  2089   914  1233   un
  2090   914  1242   un
  2091   914  1254   un
  2092   914  1264   un
  2093   914  1301    1
  2094   914  1306    1
  2095   914  1330    1
  2096   914  1335    1
  2097   915   935   un
  2098   915   957   un
  2099   915   981   un
  2100   915  1183    1
  2101   915  1187    1
  2102   915  1210    1
  2103   915  1214    1
  2104   915  1223   un
  2105   915  1232   un
  2106   915  1239   un
  2107   915  1249   un
  2108   915  1273   un
  2109   915  1285    1
  2110   915  1295    1
  2111   915  1314    1
  2112   915  1324    1
  2113   916   930   un
  2114   916   958   un
  2115   916  1185    1
  2116   916  1212    1
  2117   916  1219   un
  2118   916  1235   un
  2119   916  1237   un
  2120   916  1255   un
  2121   916  1265   un
  2122   916  1274   un
  2123   916  1287    1
  2124   916  1292    1
  2125   916  1302    1
  2126   916  1316    1
  2127   916  1321    1
  2128   916  1331    1
  2129   917   920   un
  2130   917   923   un
  2131   917   929   un
  2132   917   936   un
  2133   917   959   un
  2134   917   982   un
  2135   917  1005   un
  2136   917  1171    1
  2137   917  1176    1
  2138   917  1184    1
  2139   917  1186    1
  2140   917  1198    1
  2141   917  1203    1
  2142   917  1211    1
  2143   917  1213    1
  2144   918   922   un
  2145   918   960   un
  2146   918  1006   un
  2147   918  1172    1
  2148   918  1182    1
  2149   918  1199    1
  2150   918  1209    1
  2151   918  1221   un
  2152   918  1230   un
  2153   918  1248   un
  2154   918  1256   un
  2155   918  1266   un
  2156   918  1294    1
  2157   918  1304    1
  2158   918  1323    1
  2159   918  1333    1
  2160   919   924   un
  2161   919   962   un
  2162   919  1177    1
  2163   919  1204    1
  2164   919  1224   un
  2165   919  1227   un
  2166   919  1243   un
  2167   919  1257   un
  2168   919  1267   un
  2169   919  1276   un
  2170   919  1290    1
  2171   919  1296    1
  2172   919  1307    1
  2173   919  1319    1
  2174   919  1325    1
  2175   919  1336    1
  2176   920   923   un
  2177   920   926   un
  2178   920   939   un
  2179   920   963   un
  2180   920   985   un
  2181   920  1009   un
  2182   920  1175    1
  2183   920  1176    1
  2184   920  1180    1
  2185   920  1186    1
  2186   920  1202    1
  2187   920  1203    1
  2188   920  1207    1
  2189   920  1213    1
  2190   921   941   un
  2191   921   965   un
  2192   921   987   un
  2193   921  1170    1
  2194   921  1188    1
  2195   921  1197    1
  2196   921  1215    1
  2197   921  1228   un
  2198   921  1236   un
  2199   921  1245   un
  2200   921  1252   un
  2201   921  1277   un
  2202   921  1291    1
  2203   921  1293    1
  2204   921  1320    1
  2205   921  1322    1
  2206   922   966   un
  2207   922  1172    1
  2208   922  1199    1
  2209   922  1230   un
  2210   922  1246   un
  2211   922  1248   un
  2212   922  1259   un
  2213   922  1269   un
  2214   922  1278   un
  2215   922  1289    1
  2216   922  1294    1
  2217   922  1309    1
  2218   922  1318    1
  2219   922  1323    1
  2220   922  1338    1
  2221   923   926   un
  2222   923   929   un
  2223   923   943   un
  2224   923   967   un
  2225   923   989   un
  2226   923  1011   un
  2227   923  1171    1
  2228   923  1175    1
  2229   923  1176    1
  2230   923  1190    1
  2231   923  1198    1
  2232   923  1202    1
  2233   923  1203    1
  2234   923  1217    1
  2235   924   968   un
  2236   924  1012   un
  2237   924  1169    1
  2238   924  1177    1
  2239   924  1196    1
  2240   924  1204    1
  2241   924  1227   un
  2242   924  1243   un
  2243   924  1250   un
  2244   924  1260   un
  2245   924  1270   un
  2246   924  1290    1
  2247   924  1311    1
  2248   924  1319    1
  2249   924  1340    1
  2250   925   945   un
  2251   925   969   un
  2252   925   991   un
  2253   925  1174    1
  2254   925  1191    1
  2255   925  1201    1
  2256   925  1218    1
  2257   925  1225   un
  2258   925  1234   un
  2259   925  1241   un
  2260   925  1251   un
  2261   925  1279   un
  2262   925  1284    1
  2263   925  1297    1
  2264   925  1313    1
  2265   925  1326    1
  2266   926   929   un
  2267   926   947   un
  2268   926   971   un
  2269   926   993   un
  2270   926  1015   un
  2271   926  1167    1
  2272   926  1175    1
  2273   926  1180    1
  2274   926  1190    1
  2275   926  1194    1
  2276   926  1202    1
  2277   926  1207    1
  2278   926  1217    1
  2279   927   949   un
  2280   927   973   un
  2281   927   995   un
  2282   927  1166    1
  2283   927  1189    1
  2284   927  1193    1
  2285   927  1216    1
  2286   927  1222   un
  2287   927  1229   un
  2288   927  1238   un
  2289   927  1247   un
  2290   927  1281   un
  2291   927  1288    1
  2292   927  1300    1
  2293   927  1317    1
  2294   927  1329    1
  2295   928   974   un
  2296   928  1168    1
  2297   928  1195    1
  2298   928  1226   un
  2299   928  1240   un
  2300   928  1242   un
  2301   928  1261   un
  2302   928  1271   un
  2303   928  1282   un
  2304   928  1286    1
  2305   928  1301    1
  2306   928  1310    1
  2307   928  1315    1
  2308   928  1330    1
  2309   928  1339    1
  2310   929   951   un
  2311   929   975   un
  2312   929   997   un
  2313   929  1019   un
  2314   929  1167    1
  2315   929  1171    1
  2316   929  1184    1
  2317   929  1190    1
  2318   929  1194    1
  2319   929  1198    1
  2320   929  1211    1
  2321   929  1217    1
  2322   930   976   un
  2323   930  1020   un
  2324   930  1165    1
  2325   930  1185    1
  2326   930  1192    1
  2327   930  1212    1
  2328   930  1219   un
  2329   930  1237   un
  2330   930  1244   un
  2331   930  1262   un
  2332   930  1272   un
  2333   930  1287    1
  2334   930  1308    1
  2335   930  1316    1
  2336   930  1337    1
  2337   931  1093   un
  2338   932  1094   un
  2339   933  1095   un
  2340   934  1096   un
  2341   934  1223   un
  2342   935  1097   un
  2343   936  1099   un
  2344   937  1101   un
  2345   938  1102   un
  2346   938  1232   un
  2347   939  1103   un
  2348   940  1104   un
  2349   941  1105   un
  2350   942  1106   un
  2351   942  1238   un
  2352   943  1107   un
  2353   944  1108   un
  2354   944  1241   un
  2355   945  1109   un
  2356   946  1110   un
  2357   946  1245   un
  2358   947  1111   un
  2359   948  1112   un
  2360   948  1247   un
  2361   949  1113   un
  2362   950  1114   un
  2363   950  1251   un
  2364   951  1115   un
  2365   952  1116   un
  2366   952  1252   un
  2367   953  1021   un
  2368   954  1022   un
  2369   955  1023   un
  2370   956  1024   un
  2371   957  1025   un
  2372   958  1026   un
  2373   959  1027   un
  2374   960  1028   un
  2375   961  1029   un
  2376   962  1030   un
  2377   963  1031   un
  2378   964  1032   un
  2379   965  1033   un
  2380   966  1034   un
  2381   967  1035   un
  2382   968  1036   un
  2383   969  1037   un
  2384   970  1038   un
  2385   971  1039   un
  2386   972  1040   un
  2387   973  1041   un
  2388   974  1042   un
  2389   975  1043   un
  2390   976  1044   un
  2391   977  1104   un
  2392   978  1101   un
  2393   979  1103   un
  2394   980  1102   un
  2395   980  1223   un
  2396   981  1096   un
  2397   982  1095   un
  2398   983  1100   un
  2399   984  1097   un
  2400   984  1232   un
  2401   985  1099   un
  2402   986  1098   un
  2403   987  1116   un
  2404   988  1113   un
  2405   988  1238   un
  2406   989  1115   un
  2407   990  1114   un
  2408   990  1241   un
  2409   991  1108   un
  2410   992  1105   un
  2411   992  1245   un
  2412   993  1107   un
  2413   994  1106   un
  2414   994  1247   un
  2415   995  1112   un
  2416   996  1109   un
  2417   996  1251   un
  2418   997  1111   un
  2419   998  1110   un
  2420   998  1252   un
  2421   999  1044   un
  2422   999  1219   un
  2423  1000  1041   un
  2424  1000  1222   un
  2425  1001  1043   un
  2426  1002  1042   un
  2427  1003  1036   un
  2428  1003  1227   un
  2429  1004  1033   un
  2430  1004  1228   un
  2431  1005  1035   un
  2432  1006  1034   un
  2433  1007  1040   un
  2434  1007  1231   un
  2435  1008  1037   un
  2436  1008  1234   un
  2437  1009  1039   un
  2438  1010  1038   un
  2439  1011  1031   un
  2440  1012  1030   un
  2441  1013  1024   un
  2442  1013  1242   un
  2443  1014  1021   un
  2444  1015  1023   un
  2445  1016  1022   un
  2446  1017  1028   un
  2447  1017  1248   un
  2448  1018  1025   un
  2449  1018  1249   un
  2450  1019  1027   un
  2451  1020  1026   un
  2452  1021  1045   un
  2453  1022  1046   un
  2454  1023  1047   un
  2455  1024  1048   un
  2456  1025  1049   un
  2457  1026  1050   un
  2458  1027  1051   un
  2459  1028  1052   un
  2460  1029  1053   un
  2461  1030  1054   un
  2462  1031  1055   un
  2463  1032  1056   un
  2464  1033  1057   un
  2465  1034  1058   un
  2466  1035  1059   un
  2467  1036  1060   un
  2468  1037  1061   un
  2469  1038  1062   un
  2470  1039  1063   un
  2471  1040  1064   un
  2472  1041  1065   un
  2473  1042  1066   un
  2474  1043  1067   un
  2475  1044  1068   un
  2476  1045  1046   un
  2477  1045  1069    1
  2478  1046  1070    1
  2479  1047  1048   un
  2480  1047  1071    1
  2481  1048  1072    1
  2482  1049  1050   un
  2483  1049  1073    1
  2484  1050  1074    1
  2485  1051  1052   un
  2486  1051  1075    1
  2487  1052  1076    1
  2488  1053  1054   un
  2489  1053  1077    1
  2490  1054  1078    1
  2491  1055  1056   un
  2492  1055  1079    1
  2493  1056  1080    1
  2494  1057  1058   un
  2495  1057  1081    1
  2496  1058  1082    1
  2497  1059  1060   un
  2498  1059  1083    1
  2499  1060  1084    1
  2500  1061  1062   un
  2501  1061  1085    1
  2502  1062  1086    1
  2503  1063  1064   un
  2504  1063  1087    1
  2505  1064  1088    1
  2506  1065  1066   un
  2507  1065  1089    1
  2508  1066  1090    1
  2509  1067  1068   un
  2510  1067  1091    1
  2511  1068  1092    1
  2512  1093  1117   un
  2513  1094  1118   un
  2514  1095  1119   un
  2515  1096  1120   un
  2516  1097  1121   un
  2517  1098  1122   un
  2518  1099  1123   un
  2519  1100  1124   un
  2520  1101  1125   un
  2521  1102  1126   un
  2522  1103  1127   un
  2523  1104  1128   un
  2524  1105  1129   un
  2525  1106  1130   un
  2526  1107  1131   un
  2527  1108  1132   un
  2528  1109  1133   un
  2529  1110  1134   un
  2530  1111  1135   un
  2531  1112  1136   un
  2532  1113  1137   un
  2533  1114  1138   un
  2534  1115  1139   un
  2535  1116  1140   un
  2536  1117  1118   un
  2537  1117  1141    1
  2538  1118  1142    1
  2539  1119  1120   un
  2540  1119  1143    1
  2541  1120  1144    1
  2542  1121  1122   un
  2543  1121  1145    1
  2544  1122  1146    1
  2545  1123  1124   un
  2546  1123  1147    1
  2547  1124  1148    1
  2548  1125  1126   un
  2549  1125  1149    1
  2550  1126  1150    1
  2551  1127  1128   un
  2552  1127  1151    1
  2553  1128  1152    1
  2554  1129  1130   un
  2555  1129  1153    1
  2556  1130  1154    1
  2557  1131  1132   un
  2558  1131  1155    1
  2559  1132  1156    1
  2560  1133  1134   un
  2561  1133  1157    1
  2562  1134  1158    1
  2563  1135  1136   un
  2564  1135  1159    1
  2565  1136  1160    1
  2566  1137  1138   un
  2567  1137  1161    1
  2568  1138  1162    1
  2569  1139  1140   un
  2570  1139  1163    1
  2571  1140  1164    1
  2572  1165  1192    1
  2573  1165  1219    1
  2574  1165  1244    1
  2575  1166  1193    1
  2576  1166  1222    1
  2577  1166  1247    1
  2578  1167  1194    1
  2579  1168  1195    1
  2580  1168  1242    1
  2581  1169  1196    1
  2582  1169  1227    1
  2583  1169  1250    1
  2584  1170  1197    1
  2585  1170  1228    1
  2586  1170  1252    1
  2587  1171  1198    1
  2588  1172  1199    1
  2589  1172  1248    1
  2590  1173  1200    1
  2591  1173  1231    1
  2592  1174  1201    1
  2593  1174  1234    1
  2594  1174  1241    1
  2595  1175  1202    1
  2596  1176  1203    1
  2597  1177  1204    1
  2598  1177  1227    1
  2599  1178  1205    1
  2600  1178  1233    1
  2601  1178  1242    1
  2602  1179  1206    1
  2603  1180  1207    1
  2604  1181  1208    1
  2605  1181  1231    1
  2606  1182  1209    1
  2607  1182  1221    1
  2608  1182  1248    1
  2609  1183  1210    1
  2610  1183  1223    1
  2611  1183  1249    1
  2612  1184  1211    1
  2613  1185  1212    1
  2614  1185  1219    1
  2615  1186  1213    1
  2616  1187  1214    1
  2617  1187  1223    1
  2618  1187  1232    1
  2619  1188  1215    1
  2620  1188  1245    1
  2621  1188  1252    1
  2622  1189  1216    1
  2623  1189  1238    1
  2624  1189  1247    1
  2625  1190  1217    1
  2626  1191  1218    1
  2627  1191  1241    1
  2628  1191  1251    1
  2629  1192  1219    1
  2630  1192  1244    1
  2631  1193  1222    1
  2632  1193  1247    1
  2633  1195  1242    1
  2634  1196  1227    1
  2635  1196  1250    1
  2636  1197  1228    1
  2637  1197  1252    1
  2638  1199  1248    1
  2639  1200  1231    1
  2640  1201  1234    1
  2641  1201  1241    1
  2642  1204  1227    1
  2643  1205  1233    1
  2644  1205  1242    1
  2645  1208  1231    1
  2646  1209  1221    1
  2647  1209  1248    1
  2648  1210  1223    1
  2649  1210  1249    1
  2650  1212  1219    1
  2651  1214  1223    1
  2652  1214  1232    1
  2653  1215  1245    1
  2654  1215  1252    1
  2655  1216  1238    1
  2656  1216  1247    1
  2657  1218  1241    1
  2658  1218  1251    1
  2659  1219  1235   un
  2660  1219  1244   un
  2661  1219  1302    1
  2662  1219  1331    1
  2663  1220  1283    1
  2664  1220  1298    1
  2665  1220  1303    1
  2666  1220  1312    1
  2667  1220  1327    1
  2668  1220  1332    1
  2669  1220  4196   un
  2670  1220  4376    1
  2671  1220  4398    1
  2672  1220  4503   un
  2673  1220  4523   un
  2674  1220  4547   un
  2675  1221  1230   un
  2676  1221  1246   un
  2677  1221  1248   un
  2678  1221  1304    1
  2679  1221  1333    1
  2680  1222  1229   un
  2681  1222  1247   un
  2682  1222  1300    1
  2683  1222  1329    1
  2684  1222  2435   un
  2685  1222  2492    1
  2686  1222  2515    1
  2687  1223  1232   un
  2688  1223  1249   un
  2689  1224  1227   un
  2690  1224  1243   un
  2691  1224  1250   un
  2692  1224  1296    1
  2693  1224  1307    1
  2694  1224  1325    1
  2695  1224  1336    1
  2696  1224  4506   un
  2697  1224  4550   un
  2698  1224  4746    1
  2699  1224  4769    1
  2700  1225  1234   un
  2701  1225  1251   un
  2702  1225  1284    1
  2703  1225  1297    1
  2704  1225  1313    1
  2705  1225  1326    1
  2706  1225  2432   un
  2707  1225  2495    1
  2708  1225  2518    1
  2709  1225  4526   un
  2710  1225  4570   un
  2711  1225  4801   un
  2712  1225  4809   un
  2713  1225  4837    1
  2714  1225  4858    1
  2715  1226  1233   un
  2716  1226  1240   un
  2717  1226  1286    1
  2718  1226  1301    1
  2719  1226  1306    1
  2720  1226  1315    1
  2721  1226  1330    1
  2722  1226  1335    1
  2723  1226  2155   un
  2724  1226  2177   un
  2725  1226  2199   un
  2726  1226  2467   un
  2727  1226  2485    1
  2728  1226  2508    1
  2729  1227  1250   un
  2730  1227  1307    1
  2731  1227  1336    1
  2732  1227  4507   un
  2733  1227  4527   un
  2734  1227  4551   un
  2735  1227  4746    1
  2736  1227  4769    1
  2737  1228  1236   un
  2738  1228  1252   un
  2739  1228  1293    1
  2740  1228  1322    1
  2741  1228  4528   un
  2742  1228  4748    1
  2743  1228  4771    1
  2744  1228  4777   un
  2745  1228  4802   un
  2746  1228  4810   un
  2747  1228  4838    1
  2748  1228  4859    1
  2749  1229  1238   un
  2750  1229  1288    1
  2751  1229  1300    1
  2752  1229  1317    1
  2753  1229  1329    1
  2754  1229  2180   un
  2755  1229  2224   un
  2756  1229  2435   un
  2757  1229  2454   un
  2758  1229  2462   un
  2759  1229  2484    1
  2760  1229  2492    1
  2761  1229  2507    1
  2762  1229  2515    1
  2763  1230  1246   un
  2764  1230  1289    1
  2765  1230  1294    1
  2766  1230  1304    1
  2767  1230  1318    1
  2768  1230  1323    1
  2769  1230  1333    1
  2770  1231  1305    1
  2771  1231  1334    1
  2772  1231  2106    1
  2773  1231  2127    1
  2774  1231  2157   un
  2775  1231  2181   un
  2776  1231  2201   un
  2777  1232  1239   un
  2778  1232  1295    1
  2779  1232  1324    1
  2780  1233  1240   un
  2781  1233  1242   un
  2782  1233  1306    1
  2783  1233  1335    1
  2784  1233  2158   un
  2785  1233  2202   un
  2786  1233  2485    1
  2787  1233  2508    1
  2788  1234  1241   un
  2789  1234  1297    1
  2790  1234  1326    1
  2791  1234  2182   un
  2792  1234  2392    1
  2793  1234  2415    1
  2794  1234  2432   un
  2795  1234  2455   un
  2796  1234  2463   un
  2797  1234  2495    1
  2798  1234  2518    1
  2799  1235  1237   un
  2800  1235  1244   un
  2801  1235  1292    1
  2802  1235  1302    1
  2803  1235  1321    1
  2804  1235  1331    1
  2805  1236  1245   un
  2806  1236  1291    1
  2807  1236  1293    1
  2808  1236  1320    1
  2809  1236  1322    1
  2810  1236  4777   un
  2811  1236  4838    1
  2812  1236  4859    1
  2813  1237  1244   un
  2814  1237  1287    1
  2815  1237  1292    1
  2816  1237  1308    1
  2817  1237  1316    1
  2818  1237  1321    1
  2819  1237  1337    1
  2820  1238  1247   un
  2821  1238  1288    1
  2822  1238  1317    1
  2823  1238  2186   un
  2824  1238  2435   un
  2825  1238  2470   un
  2826  1238  2480    1
  2827  1238  2484    1
  2828  1238  2503    1
  2829  1238  2507    1
  2830  1239  1249   un
  2831  1239  1285    1
  2832  1239  1295    1
  2833  1239  1314    1
  2834  1239  1324    1
  2835  1240  1242   un
  2836  1240  1286    1
  2837  1240  1310    1
  2838  1240  1315    1
  2839  1240  1339    1
  2840  1240  2485    1
  2841  1240  2508    1
  2842  1241  1251   un
  2843  1241  2188   un
  2844  1241  2230   un
  2845  1241  2385    1
  2846  1241  2392    1
  2847  1241  2408    1
  2848  1241  2415    1
  2849  1241  2432   un
  2850  1242  1310    1
  2851  1242  1339    1
  2852  1243  1250   un
  2853  1243  1290    1
  2854  1243  1296    1
  2855  1243  1311    1
  2856  1243  1319    1
  2857  1243  1325    1
  2858  1243  1340    1
  2859  1244  1308    1
  2860  1244  1337    1
  2861  1245  1252   un
  2862  1245  1291    1
  2863  1245  1320    1
  2864  1245  4731    1
  2865  1245  4754    1
  2866  1245  4777   un
  2867  1246  1248   un
  2868  1246  1289    1
  2869  1246  1309    1
  2870  1246  1318    1
  2871  1246  1338    1
  2872  1247  2435   un
  2873  1247  2480    1
  2874  1247  2503    1
  2875  1248  1309    1
  2876  1248  1338    1
  2877  1249  1285    1
  2878  1249  1314    1
  2879  1250  1311    1
  2880  1250  1340    1
  2881  1250  4584   un
  2882  1250  4746    1
  2883  1250  4769    1
  2884  1251  1284    1
  2885  1251  1313    1
  2886  1251  2385    1
  2887  1251  2408    1
  2888  1251  2432   un
  2889  1251  4544   un
  2890  1251  4823   un
  2891  1251  4837    1
  2892  1251  4858    1
  2893  1252  4546   un
  2894  1252  4586   un
  2895  1252  4731    1
  2896  1252  4748    1
  2897  1252  4754    1
  2898  1252  4771    1
  2899  1252  4777   un
  2900  1253  2310   un
  2901  1254  2312   un
  2902  1257  4668   un
  2903  1258  4670   un
  2904  1263  2317   un
  2905  1264  2318   un
  2906  1267  4663   un
  2907  1268  4664   un
  2908  1279  4590   un
  2909  1280  4587   un
  2910  1281  2244   un
  2911  1282  2241   un
  2912  1283  1312    1
  2913  1284  1313    1
  2914  1285  1314    1
  2915  1286  1315    1
  2916  1287  1316    1
  2917  1288  1317    1
  2918  1289  1318    1
  2919  1290  1319    1
  2920  1291  1320    1
  2921  1292  1321    1
  2922  1293  1322    1
  2923  1294  1323    1
  2924  1295  1324    1
  2925  1296  1325    1
  2926  1297  1326    1
  2927  1298  1327    1
  2928  1299  1328    1
  2929  1300  1329    1
  2930  1301  1330    1
  2931  1302  1331    1
  2932  1303  1332    1
  2933  1304  1333    1
  2934  1305  1334    1
  2935  1306  1335    1
  2936  1307  1336    1
  2937  1308  1337    1
  2938  1309  1338    1
  2939  1310  1339    1
  2940  1311  1340    1
  2941  1341  1359   un
  2942  1341  1381   un
  2943  1341  1405   un
  2944  1341  1609    1
  2945  1341  1614    1
  2946  1341  1636    1
  2947  1341  1641    1
  2948  1341  1653   un
  2949  1341  1661   un
  2950  1341  1671   un
  2951  1341  1677   un
  2952  1341  1700   un
  2953  1341  1710    1
  2954  1341  1727    1
  2955  1341  1737    1
  2956  1341  1754    1
  2957  1342  1354   un
  2958  1342  1382   un
  2959  1342  1611    1
  2960  1342  1638    1
  2961  1342  1656   un
  2962  1342  1658   un
  2963  1342  1675   un
  2964  1342  1680   un
  2965  1342  1690   un
  2966  1342  1701   un
  2967  1342  1712    1
  2968  1342  1724    1
  2969  1342  1730    1
  2970  1342  1739    1
  2971  1342  1751    1
  2972  1342  1757    1
  2973  1343  1346   un
  2974  1343  1347   un
  2975  1343  1353   un
  2976  1343  1357   un
  2977  1343  1360   un
  2978  1343  1383   un
  2979  1343  1406   un
  2980  1343  1429   un
  2981  1343  1595    1
  2982  1343  1610    1
  2983  1343  1612    1
  2984  1343  1615    1
  2985  1343  1622    1
  2986  1343  1637    1
  2987  1343  1639    1
  2988  1343  1642    1
  2989  1344  1356   un
  2990  1344  1384   un
  2991  1344  1430   un
  2992  1344  1596    1
  2993  1344  1608    1
  2994  1344  1623    1
  2995  1344  1635    1
  2996  1344  1651   un
  2997  1344  1659   un
  2998  1344  1670   un
  2999  1344  1681   un
  3000  1344  1691   un
  3001  1344  1726    1
  3002  1344  1731    1
  3003  1344  1753    1
  3004  1344  1758    1
  3005  1345  1358   un
  3006  1345  1386   un
  3007  1345  1613    1
  3008  1345  1640    1
  3009  1345  1647   un
  3010  1345  1662   un
  3011  1345  1664   un
  3012  1345  1682   un
  3013  1345  1692   un
  3014  1345  1703   un
  3015  1345  1715    1
  3016  1345  1718    1
  3017  1345  1728    1
  3018  1345  1742    1
  3019  1345  1745    1
  3020  1345  1755    1
  3021  1346  1347   un
  3022  1346  1350   un
  3023  1346  1357   un
  3024  1346  1363   un
  3025  1346  1387   un
  3026  1346  1409   un
  3027  1346  1433   un
  3028  1346  1599    1
  3029  1346  1606    1
  3030  1346  1612    1
  3031  1346  1615    1
  3032  1346  1626    1
  3033  1346  1633    1
  3034  1346  1639    1
  3035  1346  1642    1
  3036  1347  1350   un
  3037  1347  1353   un
  3038  1347  1367   un
  3039  1347  1391   un
  3040  1347  1413   un
  3041  1347  1437   un
  3042  1347  1602    1
  3043  1347  1606    1
  3044  1347  1610    1
  3045  1347  1615    1
  3046  1347  1629    1
  3047  1347  1633    1
  3048  1347  1637    1
  3049  1347  1642    1
  3050  1348  1352   un
  3051  1348  1392   un
  3052  1348  1438   un
  3053  1348  1603    1
  3054  1348  1604    1
  3055  1348  1630    1
  3056  1348  1631    1
  3057  1348  1648   un
  3058  1348  1654   un
  3059  1348  1665   un
  3060  1348  1685   un
  3061  1348  1695   un
  3062  1348  1723    1
  3063  1348  1729    1
  3064  1348  1750    1
  3065  1348  1756    1
  3066  1349  1369   un
  3067  1349  1393   un
  3068  1349  1415   un
  3069  1349  1598    1
  3070  1349  1616    1
  3071  1349  1625    1
  3072  1349  1643    1
  3073  1349  1655   un
  3074  1349  1663   un
  3075  1349  1673   un
  3076  1349  1679   un
  3077  1349  1704   un
  3078  1349  1717    1
  3079  1349  1719    1
  3080  1349  1744    1
  3081  1349  1746    1
  3082  1350  1353   un
  3083  1350  1357   un
  3084  1350  1371   un
  3085  1350  1395   un
  3086  1350  1417   un
  3087  1350  1441   un
  3088  1350  1599    1
  3089  1350  1602    1
  3090  1350  1606    1
  3091  1350  1618    1
  3092  1350  1626    1
  3093  1350  1629    1
  3094  1350  1633    1
  3095  1350  1645    1
  3096  1351  1373   un
  3097  1351  1397   un
  3098  1351  1419   un
  3099  1351  1601    1
  3100  1351  1619    1
  3101  1351  1628    1
  3102  1351  1646    1
  3103  1351  1650   un
  3104  1351  1660   un
  3105  1351  1669   un
  3106  1351  1676   un
  3107  1351  1706   un
  3108  1351  1713    1
  3109  1351  1722    1
  3110  1351  1740    1
  3111  1351  1749    1
  3112  1352  1398   un
  3113  1352  1603    1
  3114  1352  1630    1
  3115  1352  1648   un
  3116  1352  1665   un
  3117  1352  1678   un
  3118  1352  1686   un
  3119  1352  1696   un
  3120  1352  1707   un
  3121  1352  1711    1
  3122  1352  1723    1
  3123  1352  1734    1
  3124  1352  1738    1
  3125  1352  1750    1
  3126  1352  1761    1
  3127  1353  1357   un
  3128  1353  1375   un
  3129  1353  1399   un
  3130  1353  1421   un
  3131  1353  1445   un
  3132  1353  1595    1
  3133  1353  1602    1
  3134  1353  1610    1
  3135  1353  1618    1
  3136  1353  1622    1
  3137  1353  1629    1
  3138  1353  1637    1
  3139  1353  1645    1
  3140  1354  1400   un
  3141  1354  1446   un
  3142  1354  1600    1
  3143  1354  1611    1
  3144  1354  1627    1
  3145  1354  1638    1
  3146  1354  1658   un
  3147  1354  1666   un
  3148  1354  1675   un
  3149  1354  1687   un
  3150  1354  1697   un
  3151  1354  1712    1
  3152  1354  1735    1
  3153  1354  1739    1
  3154  1354  1762    1
  3155  1355  1377   un
  3156  1355  1401   un
  3157  1355  1423   un
  3158  1355  1594    1
  3159  1355  1617    1
  3160  1355  1621    1
  3161  1355  1644    1
  3162  1355  1649   un
  3163  1355  1657   un
  3164  1355  1667   un
  3165  1355  1674   un
  3166  1355  1708   un
  3167  1355  1716    1
  3168  1355  1725    1
  3169  1355  1743    1
  3170  1355  1752    1
  3171  1356  1402   un
  3172  1356  1596    1
  3173  1356  1623    1
  3174  1356  1651   un
  3175  1356  1668   un
  3176  1356  1670   un
  3177  1356  1688   un
  3178  1356  1698   un
  3179  1356  1709   un
  3180  1356  1714    1
  3181  1356  1726    1
  3182  1356  1736    1
  3183  1356  1741    1
  3184  1356  1753    1
  3185  1356  1763    1
  3186  1357  1379   un
  3187  1357  1403   un
  3188  1357  1425   un
  3189  1357  1447   un
  3190  1357  1595    1
  3191  1357  1599    1
  3192  1357  1612    1
  3193  1357  1618    1
  3194  1357  1622    1
  3195  1357  1626    1
  3196  1357  1639    1
  3197  1357  1645    1
  3198  1358  1404   un
  3199  1358  1448   un
  3200  1358  1593    1
  3201  1358  1613    1
  3202  1358  1620    1
  3203  1358  1640    1
  3204  1358  1647   un
  3205  1358  1664   un
  3206  1358  1672   un
  3207  1358  1689   un
  3208  1358  1699   un
  3209  1358  1715    1
  3210  1358  1733    1
  3211  1358  1742    1
  3212  1358  1760    1
  3213  1359  1521   un
  3214  1360  1523   un
  3215  1361  1525   un
  3216  1362  1526   un
  3217  1362  1653   un
  3218  1363  1527   un
  3219  1364  1528   un
  3220  1365  1529   un
  3221  1366  1530   un
  3222  1367  1531   un
  3223  1368  1532   un
  3224  1368  1661   un
  3225  1369  1533   un
  3226  1370  1534   un
  3227  1370  1667   un
  3228  1371  1535   un
  3229  1372  1536   un
  3230  1372  1669   un
  3231  1373  1537   un
  3232  1374  1538   un
  3233  1374  1673   un
  3234  1375  1539   un
  3235  1376  1540   un
  3236  1376  1674   un
  3237  1377  1541   un
  3238  1378  1542   un
  3239  1378  1676   un
  3240  1379  1543   un
  3241  1380  1544   un
  3242  1380  1679   un
  3243  1381  1449   un
  3244  1382  1450   un
  3245  1383  1451   un
  3246  1384  1452   un
  3247  1385  1453   un
  3248  1386  1454   un
  3249  1387  1455   un
  3250  1388  1456   un
  3251  1389  1457   un
  3252  1390  1458   un
  3253  1391  1459   un
  3254  1392  1460   un
  3255  1393  1461   un
  3256  1394  1462   un
  3257  1395  1463   un
  3258  1396  1464   un
  3259  1397  1465   un
  3260  1398  1466   un
  3261  1399  1467   un
  3262  1400  1468   un
  3263  1401  1469   un
  3264  1402  1470   un
  3265  1403  1471   un
  3266  1404  1472   un
  3267  1405  1532   un
  3268  1406  1531   un
  3269  1407  1524   un
  3270  1408  1521   un
  3271  1408  1653   un
  3272  1409  1523   un
  3273  1410  1522   un
  3274  1411  1528   un
  3275  1412  1525   un
  3276  1413  1527   un
  3277  1414  1526   un
  3278  1414  1661   un
  3279  1415  1544   un
  3280  1416  1541   un
  3281  1416  1667   un
  3282  1417  1543   un
  3283  1418  1542   un
  3284  1418  1669   un
  3285  1419  1536   un
  3286  1420  1533   un
  3287  1420  1673   un
  3288  1421  1535   un
  3289  1422  1534   un
  3290  1422  1674   un
  3291  1423  1540   un
  3292  1424  1537   un
  3293  1424  1676   un
  3294  1425  1539   un
  3295  1426  1538   un
  3296  1426  1679   un
  3297  1427  1472   un
  3298  1427  1647   un
  3299  1428  1469   un
  3300  1428  1649   un
  3301  1429  1471   un
  3302  1430  1470   un
  3303  1431  1464   un
  3304  1431  1652   un
  3305  1432  1461   un
  3306  1432  1655   un
  3307  1433  1463   un
  3308  1434  1462   un
  3309  1435  1468   un
  3310  1435  1658   un
  3311  1436  1465   un
  3312  1436  1660   un
  3313  1437  1467   un
  3314  1438  1466   un
  3315  1439  1460   un
  3316  1439  1665   un
  3317  1440  1457   un
  3318  1441  1459   un
  3319  1442  1458   un
  3320  1443  1452   un
  3321  1443  1670   un
  3322  1444  1449   un
  3323  1444  1671   un
  3324  1445  1451   un
  3325  1446  1450   un
  3326  1447  1455   un
  3327  1448  1454   un
  3328  1449  1473   un
  3329  1450  1474   un
  3330  1451  1475   un
  3331  1452  1476   un
  3332  1453  1477   un
  3333  1454  1478   un
  3334  1455  1479   un
  3335  1456  1480   un
  3336  1457  1481   un
  3337  1458  1482   un
  3338  1459  1483   un
  3339  1460  1484   un
  3340  1461  1485   un
  3341  1462  1486   un
  3342  1463  1487   un
  3343  1464  1488   un
  3344  1465  1489   un
  3345  1466  1490   un
  3346  1467  1491   un
  3347  1468  1492   un
  3348  1469  1493   un
  3349  1470  1494   un
  3350  1471  1495   un
  3351  1472  1496   un
  3352  1473  1474   un
  3353  1473  1497    1
  3354  1474  1498    1
  3355  1475  1476   un
  3356  1475  1499    1
  3357  1476  1500    1
  3358  1477  1478   un
  3359  1477  1501    1
  3360  1478  1502    1
  3361  1479  1480   un
  3362  1479  1503    1
  3363  1480  1504    1
  3364  1481  1482   un
  3365  1481  1505    1
  3366  1482  1506    1
  3367  1483  1484   un
  3368  1483  1507    1
  3369  1484  1508    1
  3370  1485  1486   un
  3371  1485  1509    1
  3372  1486  1510    1
  3373  1487  1488   un
  3374  1487  1511    1
  3375  1488  1512    1
  3376  1489  1490   un
  3377  1489  1513    1
  3378  1490  1514    1
  3379  1491  1492   un
  3380  1491  1515    1
  3381  1492  1516    1
  3382  1493  1494   un
  3383  1493  1517    1
  3384  1494  1518    1
  3385  1495  1496   un
  3386  1495  1519    1
  3387  1496  1520    1
  3388  1521  1545   un
  3389  1522  1546   un
  3390  1523  1547   un
  3391  1524  1548   un
  3392  1525  1549   un
  3393  1526  1550   un
  3394  1527  1551   un
  3395  1528  1552   un
  3396  1529  1553   un
  3397  1530  1554   un
  3398  1531  1555   un
  3399  1532  1556   un
  3400  1533  1557   un
  3401  1534  1558   un
  3402  1535  1559   un
  3403  1536  1560   un
  3404  1537  1561   un
  3405  1538  1562   un
  3406  1539  1563   un
  3407  1540  1564   un
  3408  1541  1565   un
  3409  1542  1566   un
  3410  1543  1567   un
  3411  1544  1568   un
  3412  1545  1546   un
  3413  1545  1569    1
  3414  1546  1570    1
  3415  1547  1548   un
  3416  1547  1571    1
  3417  1548  1572    1
  3418  1549  1550   un
  3419  1549  1573    1
  3420  1550  1574    1
  3421  1551  1552   un
  3422  1551  1575    1
  3423  1552  1576    1
  3424  1553  1554   un
  3425  1553  1577    1
  3426  1554  1578    1
  3427  1555  1556   un
  3428  1555  1579    1
  3429  1556  1580    1
  3430  1557  1558   un
  3431  1557  1581    1
  3432  1558  1582    1
  3433  1559  1560   un
  3434  1559  1583    1
  3435  1560  1584    1
  3436  1561  1562   un
  3437  1561  1585    1
  3438  1562  1586    1
  3439  1563  1564   un
  3440  1563  1587    1
  3441  1564  1588    1
  3442  1565  1566   un
  3443  1565  1589    1
  3444  1566  1590    1
  3445  1567  1568   un
  3446  1567  1591    1
  3447  1568  1592    1
  3448  1593  1620    1
  3449  1593  1647    1
  3450  1593  1672    1
  3451  1594  1621    1
  3452  1594  1649    1
  3453  1594  1674    1
  3454  1595  1622    1
  3455  1596  1623    1
  3456  1596  1670    1
  3457  1597  1624    1
  3458  1597  1652    1
  3459  1598  1625    1
  3460  1598  1655    1
  3461  1598  1679    1
  3462  1599  1626    1
  3463  1600  1627    1
  3464  1600  1658    1
  3465  1600  1666    1
  3466  1601  1628    1
  3467  1601  1660    1
  3468  1601  1669    1
  3469  1602  1629    1
  3470  1603  1630    1
  3471  1603  1665    1
  3472  1604  1631    1
  3473  1604  1654    1
  3474  1604  1665    1
  3475  1605  1632    1
  3476  1606  1633    1
  3477  1607  1634    1
  3478  1607  1652    1
  3479  1608  1635    1
  3480  1608  1659    1
  3481  1608  1670    1
  3482  1609  1636    1
  3483  1609  1661    1
  3484  1609  1671    1
  3485  1610  1637    1
  3486  1611  1638    1
  3487  1611  1658    1
  3488  1612  1639    1
  3489  1613  1640    1
  3490  1613  1647    1
  3491  1614  1641    1
  3492  1614  1653    1
  3493  1614  1661    1
  3494  1615  1642    1
  3495  1616  1643    1
  3496  1616  1673    1
  3497  1616  1679    1
  3498  1617  1644    1
  3499  1617  1667    1
  3500  1617  1674    1
  3501  1618  1645    1
  3502  1619  1646    1
  3503  1619  1669    1
  3504  1619  1676    1
  3505  1620  1647    1
  3506  1620  1672    1
  3507  1621  1649    1
  3508  1621  1674    1
  3509  1623  1670    1
  3510  1624  1652    1
  3511  1625  1655    1
  3512  1625  1679    1
  3513  1627  1658    1
  3514  1627  1666    1
  3515  1628  1660    1
  3516  1628  1669    1
  3517  1630  1665    1
  3518  1631  1654    1
  3519  1631  1665    1
  3520  1634  1652    1
  3521  1635  1659    1
  3522  1635  1670    1
  3523  1636  1661    1
  3524  1636  1671    1
  3525  1638  1658    1
  3526  1640  1647    1
  3527  1641  1653    1
  3528  1641  1661    1
  3529  1643  1673    1
  3530  1643  1679    1
  3531  1644  1667    1
  3532  1644  1674    1
  3533  1646  1669    1
  3534  1646  1676    1
  3535  1647  1662   un
  3536  1647  1672   un
  3537  1647  1728    1
  3538  1647  1755    1
  3539  1647  1777   un
  3540  1647  1797   un
  3541  1647  1821   un
  3542  1647  2018    1
  3543  1647  2041    1
  3544  1648  1654   un
  3545  1648  1678   un
  3546  1648  1711    1
  3547  1648  1723    1
  3548  1648  1729    1
  3549  1648  1738    1
  3550  1648  1750    1
  3551  1648  1756    1
  3552  1648  4879   un
  3553  1648  4899   un
  3554  1648  4923   un
  3555  1648  5188   un
  3556  1648  5208    1
  3557  1648  5226    1
  3558  1649  1657   un
  3559  1649  1674   un
  3560  1649  1725    1
  3561  1649  1752    1
  3562  1649  1798   un
  3563  1649  2020    1
  3564  1649  2043    1
  3565  1649  2059   un
  3566  1649  2074   un
  3567  1649  2082   un
  3568  1649  2114    1
  3569  1649  2135    1
  3570  1650  1660   un
  3571  1650  1676   un
  3572  1650  1713    1
  3573  1650  1722    1
  3574  1650  1740    1
  3575  1650  1749    1
  3576  1650  2832   un
  3577  1650  2912    1
  3578  1650  2939    1
  3579  1650  4902   un
  3580  1650  4946   un
  3581  1650  5173   un
  3582  1650  5181   un
  3583  1650  5207    1
  3584  1650  5225    1
  3585  1651  1659   un
  3586  1651  1668   un
  3587  1651  1714    1
  3588  1651  1726    1
  3589  1651  1731    1
  3590  1651  1741    1
  3591  1651  1753    1
  3592  1651  1758    1
  3593  1651  2541   un
  3594  1651  2565   un
  3595  1651  2587   un
  3596  1651  2882   un
  3597  1651  2901    1
  3598  1651  2928    1
  3599  1652  1732    1
  3600  1652  1759    1
  3601  1652  4083    1
  3602  1652  4109    1
  3603  1652  4881   un
  3604  1652  4903   un
  3605  1652  4925   un
  3606  1653  1661   un
  3607  1653  1677   un
  3608  1653  1727    1
  3609  1653  1754    1
  3610  1654  1665   un
  3611  1654  1678   un
  3612  1654  1729    1
  3613  1654  1756    1
  3614  1654  4882   un
  3615  1654  4926   un
  3616  1654  5208    1
  3617  1654  5226    1
  3618  1655  1663   un
  3619  1655  1679   un
  3620  1655  1719    1
  3621  1655  1746    1
  3622  1655  2052   un
  3623  1655  2113    1
  3624  1655  2134    1
  3625  1655  4904   un
  3626  1655  5123    1
  3627  1655  5145    1
  3628  1655  5174   un
  3629  1655  5182   un
  3630  1656  1658   un
  3631  1656  1666   un
  3632  1656  1675   un
  3633  1656  1724    1
  3634  1656  1730    1
  3635  1656  1751    1
  3636  1656  1757    1
  3637  1656  2544   un
  3638  1656  2590   un
  3639  1656  2785    1
  3640  1656  2812    1
  3641  1657  1667   un
  3642  1657  1716    1
  3643  1657  1725    1
  3644  1657  1743    1
  3645  1657  1752    1
  3646  1657  2059   un
  3647  1657  2114    1
  3648  1657  2135    1
  3649  1657  2568   un
  3650  1657  2614   un
  3651  1657  2863   un
  3652  1657  2873   un
  3653  1657  2900    1
  3654  1657  2927    1
  3655  1658  1666   un
  3656  1658  1730    1
  3657  1658  1757    1
  3658  1658  2545   un
  3659  1658  2569   un
  3660  1658  2591   un
  3661  1658  2785    1
  3662  1658  2812    1
  3663  1659  1668   un
  3664  1659  1670   un
  3665  1659  1731    1
  3666  1659  1758    1
  3667  1659  2546   un
  3668  1659  2592   un
  3669  1659  2901    1
  3670  1659  2928    1
  3671  1660  1669   un
  3672  1660  1722    1
  3673  1660  1749    1
  3674  1660  2570   un
  3675  1660  2787    1
  3676  1660  2814    1
  3677  1660  2832   un
  3678  1660  2864   un
  3679  1660  2874   un
  3680  1660  2912    1
  3681  1660  2939    1
  3682  1661  1671   un
  3683  1662  1664   un
  3684  1662  1672   un
  3685  1662  1718    1
  3686  1662  1728    1
  3687  1662  1745    1
  3688  1662  1755    1
  3689  1662  1784   un
  3690  1662  1828   un
  3691  1662  2018    1
  3692  1662  2041    1
  3693  1663  1673   un
  3694  1663  1717    1
  3695  1663  1719    1
  3696  1663  1744    1
  3697  1663  1746    1
  3698  1663  1808   un
  3699  1663  1852   un
  3700  1663  2052   un
  3701  1663  2079   un
  3702  1663  2087   un
  3703  1663  2109    1
  3704  1663  2113    1
  3705  1663  2130    1
  3706  1663  2134    1
  3707  1664  1672   un
  3708  1664  1715    1
  3709  1664  1718    1
  3710  1664  1733    1
  3711  1664  1742    1
  3712  1664  1745    1
  3713  1664  1760    1
  3714  1665  1678   un
  3715  1665  1734    1
  3716  1665  1761    1
  3717  1666  1675   un
  3718  1666  1735    1
  3719  1666  1762    1
  3720  1666  2620   un
  3721  1666  2785    1
  3722  1666  2812    1
  3723  1667  1674   un
  3724  1667  1716    1
  3725  1667  1743    1
  3726  1667  2012    1
  3727  1667  2035    1
  3728  1667  2059   un
  3729  1667  2574   un
  3730  1667  2885   un
  3731  1667  2900    1
  3732  1667  2927    1
  3733  1668  1670   un
  3734  1668  1714    1
  3735  1668  1736    1
  3736  1668  1741    1
  3737  1668  1763    1
  3738  1668  2901    1
  3739  1668  2928    1
  3740  1669  1676   un
  3741  1669  2576   un
  3742  1669  2622   un
  3743  1669  2777    1
  3744  1669  2787    1
  3745  1669  2804    1
  3746  1669  2814    1
  3747  1669  2832   un
  3748  1670  1736    1
  3749  1670  1763    1
  3750  1671  1677   un
  3751  1671  1710    1
  3752  1671  1737    1
  3753  1672  1733    1
  3754  1672  1760    1
  3755  1672  1856   un
  3756  1672  2018    1
  3757  1672  2041    1
  3758  1673  1679   un
  3759  1673  1717    1
  3760  1673  1744    1
  3761  1673  1814   un
  3762  1673  2052   un
  3763  1673  2095   un
  3764  1673  2098    1
  3765  1673  2109    1
  3766  1673  2119    1
  3767  1673  2130    1
  3768  1674  1816   un
  3769  1674  1858   un
  3770  1674  2012    1
  3771  1674  2020    1
  3772  1674  2035    1
  3773  1674  2043    1
  3774  1674  2059   un
  3775  1675  1712    1
  3776  1675  1724    1
  3777  1675  1735    1
  3778  1675  1739    1
  3779  1675  1751    1
  3780  1675  1762    1
  3781  1676  1713    1
  3782  1676  1740    1
  3783  1676  2777    1
  3784  1676  2804    1
  3785  1676  2832   un
  3786  1676  4920   un
  3787  1676  5195   un
  3788  1676  5207    1
  3789  1676  5225    1
  3790  1677  1710    1
  3791  1677  1727    1
  3792  1677  1737    1
  3793  1677  1754    1
  3794  1678  1711    1
  3795  1678  1734    1
  3796  1678  1738    1
  3797  1678  1761    1
  3798  1678  5208    1
  3799  1678  5226    1
  3800  1679  2052   un
  3801  1679  2098    1
  3802  1679  2119    1
  3803  1679  4922   un
  3804  1679  4962   un
  3805  1679  5123    1
  3806  1679  5145    1
  3807  1680  2702   un
  3808  1681  2704   un
  3809  1682  1938   un
  3810  1683  1940   un
  3811  1684  5044   un
  3812  1685  5046   un
  3813  1690  2709   un
  3814  1691  2710   un
  3815  1692  1933   un
  3816  1693  1934   un
  3817  1694  5039   un
  3818  1695  5040   un
  3819  1704  1872   un
  3820  1705  1869   un
  3821  1706  4966   un
  3822  1707  4963   un
  3823  1708  2636   un
  3824  1709  2633   un
  3825  1710  1737    1
  3826  1711  1738    1
  3827  1712  1739    1
  3828  1713  1740    1
  3829  1714  1741    1
  3830  1715  1742    1
  3831  1716  1743    1
  3832  1717  1744    1
  3833  1718  1745    1
  3834  1719  1746    1
  3835  1720  1747    1
  3836  1721  1748    1
  3837  1722  1749    1
  3838  1723  1750    1
  3839  1724  1751    1
  3840  1725  1752    1
  3841  1726  1753    1
  3842  1727  1754    1
  3843  1728  1755    1
  3844  1729  1756    1
  3845  1730  1757    1
  3846  1731  1758    1
  3847  1732  1759    1
  3848  1733  1760    1
  3849  1734  1761    1
  3850  1735  1762    1
  3851  1736  1763    1
  3852  1764  1767   un
  3853  1764  1768   un
  3854  1764  1772   un
  3855  1764  1775   un
  3856  1764  1778   un
  3857  1764  1799   un
  3858  1764  1822   un
  3859  1764  1843   un
  3860  1764  2007    1
  3861  1764  2019    1
  3862  1764  2021    1
  3863  1764  2023    1
  3864  1764  2030    1
  3865  1764  2042    1
  3866  1764  2044    1
  3867  1764  2046    1
  3868  1765  1774   un
  3869  1765  1800   un
  3870  1765  1844   un
  3871  1765  2008    1
  3872  1765  2017    1
  3873  1765  2031    1
  3874  1765  2040    1
  3875  1765  2055   un
  3876  1765  2060   un
  3877  1765  2068   un
  3878  1765  2075   un
  3879  1765  2083   un
  3880  1765  2111    1
  3881  1765  2115    1
  3882  1765  2132    1
  3883  1765  2136    1
  3884  1766  1776   un
  3885  1766  1802   un
  3886  1766  2022    1
  3887  1766  2045    1
  3888  1766  2051   un
  3889  1766  2062   un
  3890  1766  2064   un
  3891  1766  2076   un
  3892  1766  2084   un
  3893  1766  2091   un
  3894  1766  2101    1
  3895  1766  2104    1
  3896  1766  2112    1
  3897  1766  2122    1
  3898  1766  2125    1
  3899  1766  2133    1
  3900  1767  1768   un
  3901  1767  1770   un
  3902  1767  1775   un
  3903  1767  1780   un
  3904  1767  1803   un
  3905  1767  1824   un
  3906  1767  1847   un
  3907  1767  2011    1
  3908  1767  2015    1
  3909  1767  2021    1
  3910  1767  2023    1
  3911  1767  2034    1
  3912  1767  2038    1
  3913  1767  2044    1
  3914  1767  2046    1
  3915  1768  1770   un
  3916  1768  1772   un
  3917  1768  1783   un
  3918  1768  1807   un
  3919  1768  1827   un
  3920  1768  1851   un
  3921  1768  2014    1
  3922  1768  2015    1
  3923  1768  2019    1
  3924  1768  2023    1
  3925  1768  2037    1
  3926  1768  2038    1
  3927  1768  2042    1
  3928  1768  2046    1
  3929  1769  1785   un
  3930  1769  1809   un
  3931  1769  1829   un
  3932  1769  2010    1
  3933  1769  2024    1
  3934  1769  2033    1
  3935  1769  2047    1
  3936  1769  2057   un
  3937  1769  2063   un
  3938  1769  2070   un
  3939  1769  2073   un
  3940  1769  2092   un
  3941  1769  2103    1
  3942  1769  2105    1
  3943  1769  2124    1
  3944  1769  2126    1
  3945  1770  1772   un
  3946  1770  1775   un
  3947  1770  1787   un
  3948  1770  1811   un
  3949  1770  1831   un
  3950  1770  1853   un
  3951  1770  2011    1
  3952  1770  2014    1
  3953  1770  2015    1
  3954  1770  2026    1
  3955  1770  2034    1
  3956  1770  2037    1
  3957  1770  2038    1
  3958  1770  2049    1
  3959  1771  1789   un
  3960  1771  1813   un
  3961  1771  1833   un
  3962  1771  2013    1
  3963  1771  2027    1
  3964  1771  2036    1
  3965  1771  2050    1
  3966  1771  2054   un
  3967  1771  2061   un
  3968  1771  2067   un
  3969  1771  2072   un
  3970  1771  2094   un
  3971  1771  2099    1
  3972  1771  2108    1
  3973  1771  2120    1
  3974  1771  2129    1
  3975  1772  1775   un
  3976  1772  1791   un
  3977  1772  1815   un
  3978  1772  1835   un
  3979  1772  1857   un
  3980  1772  2007    1
  3981  1772  2014    1
  3982  1772  2019    1
  3983  1772  2026    1
  3984  1772  2030    1
  3985  1772  2037    1
  3986  1772  2042    1
  3987  1772  2049    1
  3988  1773  1793   un
  3989  1773  1817   un
  3990  1773  1837   un
  3991  1773  2006    1
  3992  1773  2025    1
  3993  1773  2029    1
  3994  1773  2048    1
  3995  1773  2053   un
  3996  1773  2058   un
  3997  1773  2065   un
  3998  1773  2071   un
  3999  1773  2096   un
  4000  1773  2102    1
  4001  1773  2110    1
  4002  1773  2123    1
  4003  1773  2131    1
  4004  1774  1818   un
  4005  1774  2008    1
  4006  1774  2031    1
  4007  1774  2055   un
  4008  1774  2066   un
  4009  1774  2068   un
  4010  1774  2080   un
  4011  1774  2088   un
  4012  1774  2097   un
  4013  1774  2100    1
  4014  1774  2111    1
  4015  1774  2118    1
  4016  1774  2121    1
  4017  1774  2132    1
  4018  1774  2139    1
  4019  1775  1795   un
  4020  1775  1819   un
  4021  1775  1839   un
  4022  1775  1859   un
  4023  1775  2007    1
  4024  1775  2011    1
  4025  1775  2021    1
  4026  1775  2026    1
  4027  1775  2030    1
  4028  1775  2034    1
  4029  1775  2044    1
  4030  1775  2049    1
  4031  1776  1820   un
  4032  1776  1860   un
  4033  1776  2005    1
  4034  1776  2022    1
  4035  1776  2028    1
  4036  1776  2045    1
  4037  1776  2051   un
  4038  1776  2064   un
  4039  1776  2069   un
  4040  1776  2081   un
  4041  1776  2089   un
  4042  1776  2101    1
  4043  1776  2117    1
  4044  1776  2122    1
  4045  1776  2138    1
  4046  1777  1933   un
  4047  1778  1935   un
  4048  1779  1937   un
  4049  1780  1939   un
  4050  1781  1941   un
  4051  1782  1942   un
  4052  1783  1943   un
  4053  1784  1944   un
  4054  1785  1945   un
  4055  1786  1946   un
  4056  1786  2065   un
  4057  1787  1947   un
  4058  1788  1948   un
  4059  1788  2067   un
  4060  1789  1949   un
  4061  1790  1950   un
  4062  1790  2070   un
  4063  1791  1951   un
  4064  1792  1952   un
  4065  1792  2071   un
  4066  1793  1953   un
  4067  1794  1954   un
  4068  1794  2072   un
  4069  1795  1955   un
  4070  1796  1956   un
  4071  1796  2073   un
  4072  1797  1861   un
  4073  1798  1862   un
  4074  1799  1863   un
  4075  1800  1864   un
  4076  1801  1865   un
  4077  1802  1866   un
  4078  1803  1867   un
  4079  1804  1868   un
  4080  1805  1869   un
  4081  1806  1870   un
  4082  1807  1871   un
  4083  1808  1872   un
  4084  1809  1873   un
  4085  1810  1874   un
  4086  1811  1875   un
  4087  1812  1876   un
  4088  1813  1877   un
  4089  1814  1878   un
  4090  1815  1879   un
  4091  1816  1880   un
  4092  1817  1881   un
  4093  1818  1882   un
  4094  1819  1883   un
  4095  1820  1884   un
  4096  1821  1944   un
  4097  1822  1943   un
  4098  1823  1936   un
  4099  1824  1935   un
  4100  1825  1940   un
  4101  1826  1937   un
  4102  1827  1939   un
  4103  1828  1938   un
  4104  1829  1956   un
  4105  1830  1953   un
  4106  1830  2065   un
  4107  1831  1955   un
  4108  1832  1954   un
  4109  1832  2067   un
  4110  1833  1948   un
  4111  1834  1945   un
  4112  1834  2070   un
  4113  1835  1947   un
  4114  1836  1946   un
  4115  1836  2071   un
  4116  1837  1952   un
  4117  1838  1949   un
  4118  1838  2072   un
  4119  1839  1951   un
  4120  1840  1950   un
  4121  1840  2073   un
  4122  1841  1884   un
  4123  1841  2051   un
  4124  1842  1881   un
  4125  1842  2053   un
  4126  1843  1883   un
  4127  1844  1882   un
  4128  1845  1876   un
  4129  1845  2056   un
  4130  1846  1873   un
  4131  1846  2057   un
  4132  1847  1875   un
  4133  1848  1874   un
  4134  1849  1880   un
  4135  1849  2059   un
  4136  1850  1877   un
  4137  1850  2061   un
  4138  1851  1879   un
  4139  1852  1878   un
  4140  1853  1871   un
  4141  1854  1870   un
  4142  1855  1864   un
  4143  1855  2068   un
  4144  1856  1861   un
  4145  1857  1863   un
  4146  1858  1862   un
  4147  1859  1867   un
  4148  1860  1866   un
  4149  1861  1885   un
  4150  1862  1886   un
  4151  1863  1887   un
  4152  1864  1888   un
  4153  1865  1889   un
  4154  1866  1890   un
  4155  1867  1891   un
  4156  1868  1892   un
  4157  1869  1893   un
  4158  1870  1894   un
  4159  1871  1895   un
  4160  1872  1896   un
  4161  1873  1897   un
  4162  1874  1898   un
  4163  1875  1899   un
  4164  1876  1900   un
  4165  1877  1901   un
  4166  1878  1902   un
  4167  1879  1903   un
  4168  1880  1904   un
  4169  1881  1905   un
  4170  1882  1906   un
  4171  1883  1907   un
  4172  1884  1908   un
  4173  1885  1886   un
  4174  1885  1909    1
  4175  1886  1910    1
  4176  1887  1888   un
  4177  1887  1911    1
  4178  1888  1912    1
  4179  1889  1890   un
  4180  1889  1913    1
  4181  1890  1914    1
  4182  1891  1892   un
  4183  1891  1915    1
  4184  1892  1916    1
  4185  1893  1894   un
  4186  1893  1917    1
  4187  1894  1918    1
  4188  1895  1896   un
  4189  1895  1919    1
  4190  1896  1920    1
  4191  1897  1898   un
  4192  1897  1921    1
  4193  1898  1922    1
  4194  1899  1900   un
  4195  1899  1923    1
  4196  1900  1924    1
  4197  1901  1902   un
  4198  1901  1925    1
  4199  1902  1926    1
  4200  1903  1904   un
  4201  1903  1927    1
  4202  1904  1928    1
  4203  1905  1906   un
  4204  1905  1929    1
  4205  1906  1930    1
  4206  1907  1908   un
  4207  1907  1931    1
  4208  1908  1932    1
  4209  1933  1957   un
  4210  1934  1958   un
  4211  1935  1959   un
  4212  1936  1960   un
  4213  1937  1961   un
  4214  1938  1962   un
  4215  1939  1963   un
  4216  1940  1964   un
  4217  1941  1965   un
  4218  1942  1966   un
  4219  1943  1967   un
  4220  1944  1968   un
  4221  1945  1969   un
  4222  1946  1970   un
  4223  1947  1971   un
  4224  1948  1972   un
  4225  1949  1973   un
  4226  1950  1974   un
  4227  1951  1975   un
  4228  1952  1976   un
  4229  1953  1977   un
  4230  1954  1978   un
  4231  1955  1979   un
  4232  1956  1980   un
  4233  1957  1958   un
  4234  1957  1981    1
  4235  1958  1982    1
  4236  1959  1960   un
  4237  1959  1983    1
  4238  1960  1984    1
  4239  1961  1962   un
  4240  1961  1985    1
  4241  1962  1986    1
  4242  1963  1964   un
  4243  1963  1987    1
  4244  1964  1988    1
  4245  1965  1966   un
  4246  1965  1989    1
  4247  1966  1990    1
  4248  1967  1968   un
  4249  1967  1991    1
  4250  1968  1992    1
  4251  1969  1970   un
  4252  1969  1993    1
  4253  1970  1994    1
  4254  1971  1972   un
  4255  1971  1995    1
  4256  1972  1996    1
  4257  1973  1974   un
  4258  1973  1997    1
  4259  1974  1998    1
  4260  1975  1976   un
  4261  1975  1999    1
  4262  1976  2000    1
  4263  1977  1978   un
  4264  1977  2001    1
  4265  1978  2002    1
  4266  1979  1980   un
  4267  1979  2003    1
  4268  1980  2004    1
  4269  2005  2028    1
  4270  2005  2051    1
  4271  2005  2069    1
  4272  2006  2029    1
  4273  2006  2053    1
  4274  2006  2071    1
  4275  2007  2030    1
  4276  2008  2031    1
  4277  2008  2068    1
  4278  2009  2032    1
  4279  2009  2056    1
  4280  2010  2033    1
  4281  2010  2057    1
  4282  2010  2073    1
  4283  2011  2034    1
  4284  2012  2035    1
  4285  2012  2059    1
  4286  2013  2036    1
  4287  2013  2061    1
  4288  2013  2067    1
  4289  2014  2037    1
  4290  2015  2038    1
  4291  2016  2039    1
  4292  2016  2056    1
  4293  2017  2040    1
  4294  2017  2060    1
  4295  2017  2068    1
  4296  2018  2041    1
  4297  2019  2042    1
  4298  2020  2043    1
  4299  2020  2059    1
  4300  2021  2044    1
  4301  2022  2045    1
  4302  2022  2051    1
  4303  2023  2046    1
  4304  2024  2047    1
  4305  2024  2070    1
  4306  2024  2073    1
  4307  2025  2048    1
  4308  2025  2065    1
  4309  2025  2071    1
  4310  2026  2049    1
  4311  2027  2050    1
  4312  2027  2067    1
  4313  2027  2072    1
  4314  2028  2051    1
  4315  2028  2069    1
  4316  2029  2053    1
  4317  2029  2071    1
  4318  2031  2068    1
  4319  2032  2056    1
  4320  2033  2057    1
  4321  2033  2073    1
  4322  2035  2059    1
  4323  2036  2061    1
  4324  2036  2067    1
  4325  2039  2056    1
  4326  2040  2060    1
  4327  2040  2068    1
  4328  2043  2059    1
  4329  2045  2051    1
  4330  2047  2070    1
  4331  2047  2073    1
  4332  2048  2065    1
  4333  2048  2071    1
  4334  2050  2067    1
  4335  2050  2072    1
  4336  2051  2062   un
  4337  2051  2069   un
  4338  2051  2112    1
  4339  2051  2133    1
  4340  2051  2153   un
  4341  2051  2173   un
  4342  2051  2197   un
  4343  2051  2394    1
  4344  2051  2417    1
  4345  2052  2098    1
  4346  2052  2109    1
  4347  2052  2113    1
  4348  2052  2119    1
  4349  2052  2130    1
  4350  2052  2134    1
  4351  2052  4943   un
  4352  2052  5123    1
  4353  2052  5145    1
  4354  2052  5241   un
  4355  2052  5259   un
  4356  2052  5283   un
  4357  2053  2058   un
  4358  2053  2071   un
  4359  2053  2110    1
  4360  2053  2131    1
  4361  2053  2174   un
  4362  2053  2396    1
  4363  2053  2419    1
  4364  2053  2436   un
  4365  2053  2451   un
  4366  2053  2459   un
  4367  2053  2493    1
  4368  2053  2516    1
  4369  2054  2061   un
  4370  2054  2072   un
  4371  2054  2099    1
  4372  2054  2108    1
  4373  2054  2120    1
  4374  2054  2129    1
  4375  2054  3236   un
  4376  2054  3296    1
  4377  2054  3317    1
  4378  2054  5262   un
  4379  2054  5304   un
  4380  2054  5517   un
  4381  2054  5523   un
  4382  2054  5543    1
  4383  2054  5556    1
  4384  2055  2060   un
  4385  2055  2066   un
  4386  2055  2100    1
  4387  2055  2111    1
  4388  2055  2115    1
  4389  2055  2121    1
  4390  2055  2132    1
  4391  2055  2136    1
  4392  2055  2959   un
  4393  2055  2981   un
  4394  2055  3003   un
  4395  2055  3270   un
  4396  2055  3287    1
  4397  2055  3308    1
  4398  2056  2116    1
  4399  2056  2137    1
  4400  2056  4463    1
  4401  2056  4483    1
  4402  2056  5243   un
  4403  2056  5263   un
  4404  2056  5285   un
  4405  2057  2063   un
  4406  2057  2073   un
  4407  2057  2105    1
  4408  2057  2126    1
  4409  2057  2428   un
  4410  2057  2491    1
  4411  2057  2514    1
  4412  2057  5264   un
  4413  2057  5476    1
  4414  2057  5495    1
  4415  2057  5518   un
  4416  2057  5524   un
  4417  2058  2065   un
  4418  2058  2102    1
  4419  2058  2110    1
  4420  2058  2123    1
  4421  2058  2131    1
  4422  2058  2436   un
  4423  2058  2493    1
  4424  2058  2516    1
  4425  2058  2984   un
  4426  2058  3028   un
  4427  2058  3257   un
  4428  2058  3265   un
  4429  2058  3286    1
  4430  2058  3307    1
  4431  2059  2114    1
  4432  2059  2135    1
  4433  2059  2900    1
  4434  2059  2927    1
  4435  2059  2961   un
  4436  2059  2985   un
  4437  2059  3005   un
  4438  2060  2066   un
  4439  2060  2068   un
  4440  2060  2115    1
  4441  2060  2136    1
  4442  2060  2962   un
  4443  2060  3006   un
  4444  2060  3287    1
  4445  2060  3308    1
  4446  2061  2067   un
  4447  2061  2108    1
  4448  2061  2129    1
  4449  2061  2986   un
  4450  2061  3196    1
  4451  2061  3219    1
  4452  2061  3236   un
  4453  2061  3258   un
  4454  2061  3266   un
  4455  2061  3296    1
  4456  2061  3317    1
  4457  2062  2064   un
  4458  2062  2069   un
  4459  2062  2104    1
  4460  2062  2112    1
  4461  2062  2125    1
  4462  2062  2133    1
  4463  2062  2160   un
  4464  2062  2204   un
  4465  2062  2394    1
  4466  2062  2417    1
  4467  2063  2070   un
  4468  2063  2103    1
  4469  2063  2105    1
  4470  2063  2124    1
  4471  2063  2126    1
  4472  2063  2184   un
  4473  2063  2228   un
  4474  2063  2428   un
  4475  2063  2456   un
  4476  2063  2464   un
  4477  2063  2487    1
  4478  2063  2491    1
  4479  2063  2510    1
  4480  2063  2514    1
  4481  2064  2069   un
  4482  2064  2101    1
  4483  2064  2104    1
  4484  2064  2117    1
  4485  2064  2122    1
  4486  2064  2125    1
  4487  2064  2138    1
  4488  2065  2071   un
  4489  2065  2102    1
  4490  2065  2123    1
  4491  2065  2388    1
  4492  2065  2411    1
  4493  2065  2436   un
  4494  2065  2990   un
  4495  2065  3273   un
  4496  2065  3286    1
  4497  2065  3307    1
  4498  2066  2068   un
  4499  2066  2100    1
  4500  2066  2118    1
  4501  2066  2121    1
  4502  2066  2139    1
  4503  2066  3287    1
  4504  2066  3308    1
  4505  2067  2072   un
  4506  2067  2992   un
  4507  2067  3034   un
  4508  2067  3189    1
  4509  2067  3196    1
  4510  2067  3212    1
  4511  2067  3219    1
  4512  2067  3236   un
  4513  2068  2118    1
  4514  2068  2139    1
  4515  2069  2117    1
  4516  2069  2138    1
  4517  2069  2232   un
  4518  2069  2394    1
  4519  2069  2417    1
  4520  2070  2073   un
  4521  2070  2103    1
  4522  2070  2124    1
  4523  2070  2190   un
  4524  2070  2428   un
  4525  2070  2472   un
  4526  2070  2475    1
  4527  2070  2487    1
  4528  2070  2498    1
  4529  2070  2510    1
  4530  2071  2192   un
  4531  2071  2234   un
  4532  2071  2388    1
  4533  2071  2396    1
  4534  2071  2411    1
  4535  2071  2419    1
  4536  2071  2436   un
  4537  2072  2099    1
  4538  2072  2120    1
  4539  2072  3189    1
  4540  2072  3212    1
  4541  2072  3236   un
  4542  2072  5280   un
  4543  2072  5533   un
  4544  2072  5543    1
  4545  2072  5556    1
  4546  2073  2428   un
  4547  2073  2475    1
  4548  2073  2498    1
  4549  2073  5282   un
  4550  2073  5318   un
  4551  2073  5476    1
  4552  2073  5495    1
  4553  2074  3114   un
  4554  2075  3116   un
  4555  2076  2314   un
  4556  2077  2316   un
  4557  2078  5400   un
  4558  2079  5402   un
  4559  2082  3121   un
  4560  2083  3122   un
  4561  2084  2309   un
  4562  2085  2310   un
  4563  2086  5395   un
  4564  2087  5396   un
  4565  2092  2248   un
  4566  2093  2245   un
  4567  2094  5322   un
  4568  2095  5319   un
  4569  2096  3048   un
  4570  2097  3045   un
  4571  2098  2119    1
  4572  2099  2120    1
  4573  2100  2121    1
  4574  2101  2122    1
  4575  2102  2123    1
  4576  2103  2124    1
  4577  2104  2125    1
  4578  2105  2126    1
  4579  2106  2127    1
  4580  2107  2128    1
  4581  2108  2129    1
  4582  2109  2130    1
  4583  2110  2131    1
  4584  2111  2132    1
  4585  2112  2133    1
  4586  2113  2134    1
  4587  2114  2135    1
  4588  2115  2136    1
  4589  2116  2137    1
  4590  2117  2138    1
  4591  2118  2139    1
  4592  2140  2143   un
  4593  2140  2144   un
  4594  2140  2148   un
  4595  2140  2151   un
  4596  2140  2154   un
  4597  2140  2175   un
  4598  2140  2198   un
  4599  2140  2219   un
  4600  2140  2383    1
  4601  2140  2395    1
  4602  2140  2397    1
  4603  2140  2399    1
  4604  2140  2406    1
  4605  2140  2418    1
  4606  2140  2420    1
  4607  2140  2422    1
  4608  2141  2150   un
  4609  2141  2176   un
  4610  2141  2220   un
  4611  2141  2384    1
  4612  2141  2393    1
  4613  2141  2407    1
  4614  2141  2416    1
  4615  2141  2431   un
  4616  2141  2437   un
  4617  2141  2445   un
  4618  2141  2452   un
  4619  2141  2460   un
  4620  2141  2489    1
  4621  2141  2494    1
  4622  2141  2512    1
  4623  2141  2517    1
  4624  2142  2152   un
  4625  2142  2178   un
  4626  2142  2398    1
  4627  2142  2421    1
  4628  2142  2427   un
  4629  2142  2439   un
  4630  2142  2441   un
  4631  2142  2453   un
  4632  2142  2461   un
  4633  2142  2468   un
  4634  2142  2478    1
  4635  2142  2482    1
  4636  2142  2490    1
  4637  2142  2501    1
  4638  2142  2505    1
  4639  2142  2513    1
  4640  2143  2144   un
  4641  2143  2146   un
  4642  2143  2151   un
  4643  2143  2156   un
  4644  2143  2179   un
  4645  2143  2200   un
  4646  2143  2223   un
  4647  2143  2387    1
  4648  2143  2391    1
  4649  2143  2397    1
  4650  2143  2399    1
  4651  2143  2410    1
  4652  2143  2414    1
  4653  2143  2420    1
  4654  2143  2422    1
  4655  2144  2146   un
  4656  2144  2148   un
  4657  2144  2159   un
  4658  2144  2183   un
  4659  2144  2203   un
  4660  2144  2227   un
  4661  2144  2390    1
  4662  2144  2391    1
  4663  2144  2395    1
  4664  2144  2399    1
  4665  2144  2413    1
  4666  2144  2414    1
  4667  2144  2418    1
  4668  2144  2422    1
  4669  2145  2161   un
  4670  2145  2185   un
  4671  2145  2205   un
  4672  2145  2386    1
  4673  2145  2400    1
  4674  2145  2409    1
  4675  2145  2423    1
  4676  2145  2433   un
  4677  2145  2440   un
  4678  2145  2447   un
  4679  2145  2450   un
  4680  2145  2469   un
  4681  2145  2481    1
  4682  2145  2483    1
  4683  2145  2504    1
  4684  2145  2506    1
  4685  2146  2148   un
  4686  2146  2151   un
  4687  2146  2163   un
  4688  2146  2187   un
  4689  2146  2207   un
  4690  2146  2229   un
  4691  2146  2387    1
  4692  2146  2390    1
  4693  2146  2391    1
  4694  2146  2402    1
  4695  2146  2410    1
  4696  2146  2413    1
  4697  2146  2414    1
  4698  2146  2425    1
  4699  2147  2165   un
  4700  2147  2189   un
  4701  2147  2209   un
  4702  2147  2389    1
  4703  2147  2403    1
  4704  2147  2412    1
  4705  2147  2426    1
  4706  2147  2430   un
  4707  2147  2438   un
  4708  2147  2444   un
  4709  2147  2449   un
  4710  2147  2471   un
  4711  2147  2476    1
  4712  2147  2486    1
  4713  2147  2499    1
  4714  2147  2509    1
  4715  2148  2151   un
  4716  2148  2167   un
  4717  2148  2191   un
  4718  2148  2211   un
  4719  2148  2233   un
  4720  2148  2383    1
  4721  2148  2390    1
  4722  2148  2395    1
  4723  2148  2402    1
  4724  2148  2406    1
  4725  2148  2413    1
  4726  2148  2418    1
  4727  2148  2425    1
  4728  2149  2169   un
  4729  2149  2193   un
  4730  2149  2213   un
  4731  2149  2382    1
  4732  2149  2401    1
  4733  2149  2405    1
  4734  2149  2424    1
  4735  2149  2429   un
  4736  2149  2434   un
  4737  2149  2442   un
  4738  2149  2448   un
  4739  2149  2473   un
  4740  2149  2479    1
  4741  2149  2488    1
  4742  2149  2502    1
  4743  2149  2511    1
  4744  2150  2194   un
  4745  2150  2384    1
  4746  2150  2407    1
  4747  2150  2431   un
  4748  2150  2443   un
  4749  2150  2445   un
  4750  2150  2457   un
  4751  2150  2465   un
  4752  2150  2474   un
  4753  2150  2477    1
  4754  2150  2489    1
  4755  2150  2497    1
  4756  2150  2500    1
  4757  2150  2512    1
  4758  2150  2520    1
  4759  2151  2171   un
  4760  2151  2195   un
  4761  2151  2215   un
  4762  2151  2235   un
  4763  2151  2383    1
  4764  2151  2387    1
  4765  2151  2397    1
  4766  2151  2402    1
  4767  2151  2406    1
  4768  2151  2410    1
  4769  2151  2420    1
  4770  2151  2425    1
  4771  2152  2196   un
  4772  2152  2236   un
  4773  2152  2381    1
  4774  2152  2398    1
  4775  2152  2404    1
  4776  2152  2421    1
  4777  2152  2427   un
  4778  2152  2441   un
  4779  2152  2446   un
  4780  2152  2458   un
  4781  2152  2466   un
  4782  2152  2478    1
  4783  2152  2496    1
  4784  2152  2501    1
  4785  2152  2519    1
  4786  2153  2309   un
  4787  2154  2311   un
  4788  2155  2313   un
  4789  2156  2315   un
  4790  2157  2317   un
  4791  2158  2318   un
  4792  2159  2319   un
  4793  2160  2320   un
  4794  2161  2321   un
  4795  2162  2322   un
  4796  2162  2442   un
  4797  2163  2323   un
  4798  2164  2324   un
  4799  2164  2444   un
  4800  2165  2325   un
  4801  2166  2326   un
  4802  2166  2447   un
  4803  2167  2327   un
  4804  2168  2328   un
  4805  2168  2448   un
  4806  2169  2329   un
  4807  2170  2330   un
  4808  2170  2449   un
  4809  2171  2331   un
  4810  2172  2332   un
  4811  2172  2450   un
  4812  2173  2237   un
  4813  2174  2238   un
  4814  2175  2239   un
  4815  2176  2240   un
  4816  2177  2241   un
  4817  2178  2242   un
  4818  2179  2243   un
  4819  2180  2244   un
  4820  2181  2245   un
  4821  2182  2246   un
  4822  2183  2247   un
  4823  2184  2248   un
  4824  2185  2249   un
  4825  2186  2250   un
  4826  2187  2251   un
  4827  2188  2252   un
  4828  2189  2253   un
  4829  2190  2254   un
  4830  2191  2255   un
  4831  2192  2256   un
  4832  2193  2257   un
  4833  2194  2258   un
  4834  2195  2259   un
  4835  2196  2260   un
  4836  2197  2320   un
  4837  2198  2319   un
  4838  2199  2312   un
  4839  2200  2311   un
  4840  2201  2316   un
  4841  2202  2313   un
  4842  2203  2315   un
  4843  2204  2314   un
  4844  2205  2332   un
  4845  2206  2329   un
  4846  2206  2442   un
  4847  2207  2331   un
  4848  2208  2330   un
  4849  2208  2444   un
  4850  2209  2324   un
  4851  2210  2321   un
  4852  2210  2447   un
  4853  2211  2323   un
  4854  2212  2322   un
  4855  2212  2448   un
  4856  2213  2328   un
  4857  2214  2325   un
  4858  2214  2449   un
  4859  2215  2327   un
  4860  2216  2326   un
  4861  2216  2450   un
  4862  2217  2260   un
  4863  2217  2427   un
  4864  2218  2257   un
  4865  2218  2429   un
  4866  2219  2259   un
  4867  2220  2258   un
  4868  2221  2252   un
  4869  2221  2432   un
  4870  2222  2249   un
  4871  2222  2433   un
  4872  2223  2251   un
  4873  2224  2250   un
  4874  2225  2256   un
  4875  2225  2436   un
  4876  2226  2253   un
  4877  2226  2438   un
  4878  2227  2255   un
  4879  2228  2254   un
  4880  2229  2247   un
  4881  2230  2246   un
  4882  2231  2240   un
  4883  2231  2445   un
  4884  2232  2237   un
  4885  2233  2239   un
  4886  2234  2238   un
  4887  2235  2243   un
  4888  2236  2242   un
  4889  2237  2261   un
  4890  2238  2262   un
  4891  2239  2263   un
  4892  2240  2264   un
  4893  2241  2265   un
  4894  2242  2266   un
  4895  2243  2267   un
  4896  2244  2268   un
  4897  2245  2269   un
  4898  2246  2270   un
  4899  2247  2271   un
  4900  2248  2272   un
  4901  2249  2273   un
  4902  2250  2274   un
  4903  2251  2275   un
  4904  2252  2276   un
  4905  2253  2277   un
  4906  2254  2278   un
  4907  2255  2279   un
  4908  2256  2280   un
  4909  2257  2281   un
  4910  2258  2282   un
  4911  2259  2283   un
  4912  2260  2284   un
  4913  2261  2262   un
  4914  2261  2285    1
  4915  2262  2286    1
  4916  2263  2264   un
  4917  2263  2287    1
  4918  2264  2288    1
  4919  2265  2266   un
  4920  2265  2289    1
  4921  2266  2290    1
  4922  2267  2268   un
  4923  2267  2291    1
  4924  2268  2292    1
  4925  2269  2270   un
  4926  2269  2293    1
  4927  2270  2294    1
  4928  2271  2272   un
  4929  2271  2295    1
  4930  2272  2296    1
  4931  2273  2274   un
  4932  2273  2297    1
  4933  2274  2298    1
  4934  2275  2276   un
  4935  2275  2299    1
  4936  2276  2300    1
  4937  2277  2278   un
  4938  2277  2301    1
  4939  2278  2302    1
  4940  2279  2280   un
  4941  2279  2303    1
  4942  2280  2304    1
  4943  2281  2282   un
  4944  2281  2305    1
  4945  2282  2306    1
  4946  2283  2284   un
  4947  2283  2307    1
  4948  2284  2308    1
  4949  2309  2333   un
  4950  2310  2334   un
  4951  2311  2335   un
  4952  2312  2336   un
  4953  2313  2337   un
  4954  2314  2338   un
  4955  2315  2339   un
  4956  2316  2340   un
  4957  2317  2341   un
  4958  2318  2342   un
  4959  2319  2343   un
  4960  2320  2344   un
  4961  2321  2345   un
  4962  2322  2346   un
  4963  2323  2347   un
  4964  2324  2348   un
  4965  2325  2349   un
  4966  2326  2350   un
  4967  2327  2351   un
  4968  2328  2352   un
  4969  2329  2353   un
  4970  2330  2354   un
  4971  2331  2355   un
  4972  2332  2356   un
  4973  2333  2334   un
  4974  2333  2357    1
  4975  2334  2358    1
  4976  2335  2336   un
  4977  2335  2359    1
  4978  2336  2360    1
  4979  2337  2338   un
  4980  2337  2361    1
  4981  2338  2362    1
  4982  2339  2340   un
  4983  2339  2363    1
  4984  2340  2364    1
  4985  2341  2342   un
  4986  2341  2365    1
  4987  2342  2366    1
  4988  2343  2344   un
  4989  2343  2367    1
  4990  2344  2368    1
  4991  2345  2346   un
  4992  2345  2369    1
  4993  2346  2370    1
  4994  2347  2348   un
  4995  2347  2371    1
  4996  2348  2372    1
  4997  2349  2350   un
  4998  2349  2373    1
  4999  2350  2374    1
  5000  2351  2352   un
  5001  2351  2375    1
  5002  2352  2376    1
  5003  2353  2354   un
  5004  2353  2377    1
  5005  2354  2378    1
  5006  2355  2356   un
  5007  2355  2379    1
  5008  2356  2380    1
  5009  2381  2404    1
  5010  2381  2427    1
  5011  2381  2446    1
  5012  2382  2405    1
  5013  2382  2429    1
  5014  2382  2448    1
  5015  2383  2406    1
  5016  2384  2407    1
  5017  2384  2445    1
  5018  2385  2408    1
  5019  2385  2432    1
  5020  2386  2409    1
  5021  2386  2433    1
  5022  2386  2450    1
  5023  2387  2410    1
  5024  2388  2411    1
  5025  2388  2436    1
  5026  2389  2412    1
  5027  2389  2438    1
  5028  2389  2444    1
  5029  2390  2413    1
  5030  2391  2414    1
  5031  2392  2415    1
  5032  2392  2432    1
  5033  2393  2416    1
  5034  2393  2437    1
  5035  2393  2445    1
  5036  2394  2417    1
  5037  2395  2418    1
  5038  2396  2419    1
  5039  2396  2436    1
  5040  2397  2420    1
  5041  2398  2421    1
  5042  2398  2427    1
  5043  2399  2422    1
  5044  2400  2423    1
  5045  2400  2447    1
  5046  2400  2450    1
  5047  2401  2424    1
  5048  2401  2442    1
  5049  2401  2448    1
  5050  2402  2425    1
  5051  2403  2426    1
  5052  2403  2444    1
  5053  2403  2449    1
  5054  2404  2427    1
  5055  2404  2446    1
  5056  2405  2429    1
  5057  2405  2448    1
  5058  2407  2445    1
  5059  2408  2432    1
  5060  2409  2433    1
  5061  2409  2450    1
  5062  2411  2436    1
  5063  2412  2438    1
  5064  2412  2444    1
  5065  2415  2432    1
  5066  2416  2437    1
  5067  2416  2445    1
  5068  2419  2436    1
  5069  2421  2427    1
  5070  2423  2447    1
  5071  2423  2450    1
  5072  2424  2442    1
  5073  2424  2448    1
  5074  2426  2444    1
  5075  2426  2449    1
  5076  2427  2439   un
  5077  2427  2446   un
  5078  2427  2490    1
  5079  2427  2513    1
  5080  2428  2475    1
  5081  2428  2487    1
  5082  2428  2491    1
  5083  2428  2498    1
  5084  2428  2510    1
  5085  2428  2514    1
  5086  2428  5301   un
  5087  2428  5476    1
  5088  2428  5495    1
  5089  2428  5569   un
  5090  2428  5587   un
  5091  2428  5611   un
  5092  2429  2434   un
  5093  2429  2448   un
  5094  2429  2488    1
  5095  2429  2511    1
  5096  2429  3615   un
  5097  2429  3672    1
  5098  2429  3695    1
  5099  2430  2438   un
  5100  2430  2449   un
  5101  2430  2476    1
  5102  2430  2486    1
  5103  2430  2499    1
  5104  2430  2509    1
  5105  2430  3612   un
  5106  2430  3675    1
  5107  2430  3698    1
  5108  2430  5590   un
  5109  2430  5632   un
  5110  2430  5849   un
  5111  2430  5855   un
  5112  2430  5876    1
  5113  2430  5892    1
  5114  2431  2437   un
  5115  2431  2443   un
  5116  2431  2477    1
  5117  2431  2489    1
  5118  2431  2494    1
  5119  2431  2500    1
  5120  2431  2512    1
  5121  2431  2517    1
  5122  2431  3335   un
  5123  2431  3357   un
  5124  2431  3379   un
  5125  2431  3647   un
  5126  2431  3665    1
  5127  2431  3688    1
  5128  2432  2495    1
  5129  2432  2518    1
  5130  2432  4837    1
  5131  2432  4858    1
  5132  2432  5571   un
  5133  2432  5591   un
  5134  2432  5613   un
  5135  2433  2440   un
  5136  2433  2450   un
  5137  2433  2483    1
  5138  2433  2506    1
  5139  2433  5592   un
  5140  2433  5805    1
  5141  2433  5825    1
  5142  2433  5831   un
  5143  2433  5850   un
  5144  2433  5856   un
  5145  2433  5877    1
  5146  2433  5893    1
  5147  2434  2442   un
  5148  2434  2479    1
  5149  2434  2488    1
  5150  2434  2502    1
  5151  2434  2511    1
  5152  2434  3360   un
  5153  2434  3404   un
  5154  2434  3615   un
  5155  2434  3634   un
  5156  2434  3642   un
  5157  2434  3664    1
  5158  2434  3672    1
  5159  2434  3687    1
  5160  2434  3695    1
  5161  2435  2480    1
  5162  2435  2484    1
  5163  2435  2492    1
  5164  2435  2503    1
  5165  2435  2507    1
  5166  2435  2515    1
  5167  2436  2493    1
  5168  2436  2516    1
  5169  2436  3286    1
  5170  2436  3307    1
  5171  2436  3337   un
  5172  2436  3361   un
  5173  2436  3381   un
  5174  2437  2443   un
  5175  2437  2445   un
  5176  2437  2494    1
  5177  2437  2517    1
  5178  2437  3338   un
  5179  2437  3382   un
  5180  2437  3665    1
  5181  2437  3688    1
  5182  2438  2444   un
  5183  2438  2486    1
  5184  2438  2509    1
  5185  2438  3362   un
  5186  2438  3572    1
  5187  2438  3595    1
  5188  2438  3612   un
  5189  2438  3635   un
  5190  2438  3643   un
  5191  2438  3675    1
  5192  2438  3698    1
  5193  2439  2441   un
  5194  2439  2446   un
  5195  2439  2482    1
  5196  2439  2490    1
  5197  2439  2505    1
  5198  2439  2513    1
  5199  2440  2447   un
  5200  2440  2481    1
  5201  2440  2483    1
  5202  2440  2504    1
  5203  2440  2506    1
  5204  2440  5831   un
  5205  2440  5877    1
  5206  2440  5893    1
  5207  2441  2446   un
  5208  2441  2478    1
  5209  2441  2482    1
  5210  2441  2496    1
  5211  2441  2501    1
  5212  2441  2505    1
  5213  2441  2519    1
  5214  2442  2448   un
  5215  2442  2479    1
  5216  2442  2502    1
  5217  2442  3366   un
  5218  2442  3615   un
  5219  2442  3650   un
  5220  2442  3660    1
  5221  2442  3664    1
  5222  2442  3683    1
  5223  2442  3687    1
  5224  2443  2445   un
  5225  2443  2477    1
  5226  2443  2497    1
  5227  2443  2500    1
  5228  2443  2520    1
  5229  2443  3665    1
  5230  2443  3688    1
  5231  2444  2449   un
  5232  2444  3368   un
  5233  2444  3410   un
  5234  2444  3565    1
  5235  2444  3572    1
  5236  2444  3588    1
  5237  2444  3595    1
  5238  2444  3612   un
  5239  2445  2497    1
  5240  2445  2520    1
  5241  2446  2496    1
  5242  2446  2519    1
  5243  2447  2450   un
  5244  2447  2481    1
  5245  2447  2504    1
  5246  2447  5791    1
  5247  2447  5811    1
  5248  2447  5831   un
  5249  2448  3615   un
  5250  2448  3660    1
  5251  2448  3683    1
  5252  2449  2476    1
  5253  2449  2499    1
  5254  2449  3565    1
  5255  2449  3588    1
  5256  2449  3612   un
  5257  2449  5608   un
  5258  2449  5865   un
  5259  2449  5876    1
  5260  2449  5892    1
  5261  2450  5610   un
  5262  2450  5646   un
  5263  2450  5791    1
  5264  2450  5805    1
  5265  2450  5811    1
  5266  2450  5825    1
  5267  2450  5831   un
  5268  2451  3490   un
  5269  2452  3492   un
  5270  2455  5728   un
  5271  2456  5730   un
  5272  2459  3497   un
  5273  2460  3498   un
  5274  2463  5723   un
  5275  2464  5724   un
  5276  2471  5650   un
  5277  2472  5647   un
  5278  2473  3424   un
  5279  2474  3421   un
  5280  2475  2498    1
  5281  2476  2499    1
  5282  2477  2500    1
  5283  2478  2501    1
  5284  2479  2502    1
  5285  2480  2503    1
  5286  2481  2504    1
  5287  2482  2505    1
  5288  2483  2506    1
  5289  2484  2507    1
  5290  2485  2508    1
  5291  2486  2509    1
  5292  2487  2510    1
  5293  2488  2511    1
  5294  2489  2512    1
  5295  2490  2513    1
  5296  2491  2514    1
  5297  2492  2515    1
  5298  2493  2516    1
  5299  2494  2517    1
  5300  2495  2518    1
  5301  2496  2519    1
  5302  2497  2520    1
  5303  2521  2539   un
  5304  2521  2561   un
  5305  2521  2585   un
  5306  2521  2789    1
  5307  2521  2794    1
  5308  2521  2816    1
  5309  2521  2821    1
  5310  2521  2833   un
  5311  2521  2841   un
  5312  2521  2851   un
  5313  2521  2857   un
  5314  2521  2880   un
  5315  2521  2890    1
  5316  2521  2907    1
  5317  2521  2917    1
  5318  2521  2934    1
  5319  2522  2534   un
  5320  2522  2562   un
  5321  2522  2791    1
  5322  2522  2818    1
  5323  2522  2836   un
  5324  2522  2838   un
  5325  2522  2855   un
  5326  2522  2860   un
  5327  2522  2870   un
  5328  2522  2881   un
  5329  2522  2892    1
  5330  2522  2904    1
  5331  2522  2910    1
  5332  2522  2919    1
  5333  2522  2931    1
  5334  2522  2937    1
  5335  2523  2526   un
  5336  2523  2527   un
  5337  2523  2533   un
  5338  2523  2537   un
  5339  2523  2540   un
  5340  2523  2563   un
  5341  2523  2586   un
  5342  2523  2609   un
  5343  2523  2775    1
  5344  2523  2790    1
  5345  2523  2792    1
  5346  2523  2795    1
  5347  2523  2802    1
  5348  2523  2817    1
  5349  2523  2819    1
  5350  2523  2822    1
  5351  2524  2536   un
  5352  2524  2564   un
  5353  2524  2610   un
  5354  2524  2776    1
  5355  2524  2788    1
  5356  2524  2803    1
  5357  2524  2815    1
  5358  2524  2831   un
  5359  2524  2839   un
  5360  2524  2850   un
  5361  2524  2861   un
  5362  2524  2871   un
  5363  2524  2906    1
  5364  2524  2911    1
  5365  2524  2933    1
  5366  2524  2938    1
  5367  2525  2538   un
  5368  2525  2566   un
  5369  2525  2793    1
  5370  2525  2820    1
  5371  2525  2827   un
  5372  2525  2842   un
  5373  2525  2844   un
  5374  2525  2862   un
  5375  2525  2872   un
  5376  2525  2883   un
  5377  2525  2895    1
  5378  2525  2898    1
  5379  2525  2908    1
  5380  2525  2922    1
  5381  2525  2925    1
  5382  2525  2935    1
  5383  2526  2527   un
  5384  2526  2530   un
  5385  2526  2537   un
  5386  2526  2543   un
  5387  2526  2567   un
  5388  2526  2589   un
  5389  2526  2613   un
  5390  2526  2779    1
  5391  2526  2786    1
  5392  2526  2792    1
  5393  2526  2795    1
  5394  2526  2806    1
  5395  2526  2813    1
  5396  2526  2819    1
  5397  2526  2822    1
  5398  2527  2530   un
  5399  2527  2533   un
  5400  2527  2547   un
  5401  2527  2571   un
  5402  2527  2593   un
  5403  2527  2617   un
  5404  2527  2782    1
  5405  2527  2786    1
  5406  2527  2790    1
  5407  2527  2795    1
  5408  2527  2809    1
  5409  2527  2813    1
  5410  2527  2817    1
  5411  2527  2822    1
  5412  2528  2532   un
  5413  2528  2572   un
  5414  2528  2618   un
  5415  2528  2783    1
  5416  2528  2784    1
  5417  2528  2810    1
  5418  2528  2811    1
  5419  2528  2828   un
  5420  2528  2834   un
  5421  2528  2845   un
  5422  2528  2865   un
  5423  2528  2875   un
  5424  2528  2903    1
  5425  2528  2909    1
  5426  2528  2930    1
  5427  2528  2936    1
  5428  2529  2549   un
  5429  2529  2573   un
  5430  2529  2595   un
  5431  2529  2778    1
  5432  2529  2796    1
  5433  2529  2805    1
  5434  2529  2823    1
  5435  2529  2835   un
  5436  2529  2843   un
  5437  2529  2853   un
  5438  2529  2859   un
  5439  2529  2884   un
  5440  2529  2897    1
  5441  2529  2899    1
  5442  2529  2924    1
  5443  2529  2926    1
  5444  2530  2533   un
  5445  2530  2537   un
  5446  2530  2551   un
  5447  2530  2575   un
  5448  2530  2597   un
  5449  2530  2621   un
  5450  2530  2779    1
  5451  2530  2782    1
  5452  2530  2786    1
  5453  2530  2798    1
  5454  2530  2806    1
  5455  2530  2809    1
  5456  2530  2813    1
  5457  2530  2825    1
  5458  2531  2553   un
  5459  2531  2577   un
  5460  2531  2599   un
  5461  2531  2781    1
  5462  2531  2799    1
  5463  2531  2808    1
  5464  2531  2826    1
  5465  2531  2830   un
  5466  2531  2840   un
  5467  2531  2849   un
  5468  2531  2856   un
  5469  2531  2886   un
  5470  2531  2893    1
  5471  2531  2902    1
  5472  2531  2920    1
  5473  2531  2929    1
  5474  2532  2578   un
  5475  2532  2783    1
  5476  2532  2810    1
  5477  2532  2828   un
  5478  2532  2845   un
  5479  2532  2858   un
  5480  2532  2866   un
  5481  2532  2876   un
  5482  2532  2887   un
  5483  2532  2891    1
  5484  2532  2903    1
  5485  2532  2914    1
  5486  2532  2918    1
  5487  2532  2930    1
  5488  2532  2941    1
  5489  2533  2537   un
  5490  2533  2555   un
  5491  2533  2579   un
  5492  2533  2601   un
  5493  2533  2625   un
  5494  2533  2775    1
  5495  2533  2782    1
  5496  2533  2790    1
  5497  2533  2798    1
  5498  2533  2802    1
  5499  2533  2809    1
  5500  2533  2817    1
  5501  2533  2825    1
  5502  2534  2580   un
  5503  2534  2626   un
  5504  2534  2780    1
  5505  2534  2791    1
  5506  2534  2807    1
  5507  2534  2818    1
  5508  2534  2838   un
  5509  2534  2846   un
  5510  2534  2855   un
  5511  2534  2867   un
  5512  2534  2877   un
  5513  2534  2892    1
  5514  2534  2915    1
  5515  2534  2919    1
  5516  2534  2942    1
  5517  2535  2557   un
  5518  2535  2581   un
  5519  2535  2603   un
  5520  2535  2774    1
  5521  2535  2797    1
  5522  2535  2801    1
  5523  2535  2824    1
  5524  2535  2829   un
  5525  2535  2837   un
  5526  2535  2847   un
  5527  2535  2854   un
  5528  2535  2888   un
  5529  2535  2896    1
  5530  2535  2905    1
  5531  2535  2923    1
  5532  2535  2932    1
  5533  2536  2582   un
  5534  2536  2776    1
  5535  2536  2803    1
  5536  2536  2831   un
  5537  2536  2848   un
  5538  2536  2850   un
  5539  2536  2868   un
  5540  2536  2878   un
  5541  2536  2889   un
  5542  2536  2894    1
  5543  2536  2906    1
  5544  2536  2916    1
  5545  2536  2921    1
  5546  2536  2933    1
  5547  2536  2943    1
  5548  2537  2559   un
  5549  2537  2583   un
  5550  2537  2605   un
  5551  2537  2627   un
  5552  2537  2775    1
  5553  2537  2779    1
  5554  2537  2792    1
  5555  2537  2798    1
  5556  2537  2802    1
  5557  2537  2806    1
  5558  2537  2819    1
  5559  2537  2825    1
  5560  2538  2584   un
  5561  2538  2628   un
  5562  2538  2773    1
  5563  2538  2793    1
  5564  2538  2800    1
  5565  2538  2820    1
  5566  2538  2827   un
  5567  2538  2844   un
  5568  2538  2852   un
  5569  2538  2869   un
  5570  2538  2879   un
  5571  2538  2895    1
  5572  2538  2913    1
  5573  2538  2922    1
  5574  2538  2940    1
  5575  2539  2701   un
  5576  2540  2703   un
  5577  2541  2705   un
  5578  2542  2706   un
  5579  2542  2833   un
  5580  2543  2707   un
  5581  2544  2708   un
  5582  2545  2709   un
  5583  2546  2710   un
  5584  2547  2711   un
  5585  2548  2712   un
  5586  2548  2841   un
  5587  2549  2713   un
  5588  2550  2714   un
  5589  2550  2847   un
  5590  2551  2715   un
  5591  2552  2716   un
  5592  2552  2849   un
  5593  2553  2717   un
  5594  2554  2718   un
  5595  2554  2853   un
  5596  2555  2719   un
  5597  2556  2720   un
  5598  2556  2854   un
  5599  2557  2721   un
  5600  2558  2722   un
  5601  2558  2856   un
  5602  2559  2723   un
  5603  2560  2724   un
  5604  2560  2859   un
  5605  2561  2629   un
  5606  2562  2630   un
  5607  2563  2631   un
  5608  2564  2632   un
  5609  2565  2633   un
  5610  2566  2634   un
  5611  2567  2635   un
  5612  2568  2636   un
  5613  2569  2637   un
  5614  2570  2638   un
  5615  2571  2639   un
  5616  2572  2640   un
  5617  2573  2641   un
  5618  2574  2642   un
  5619  2575  2643   un
  5620  2576  2644   un
  5621  2577  2645   un
  5622  2578  2646   un
  5623  2579  2647   un
  5624  2580  2648   un
  5625  2581  2649   un
  5626  2582  2650   un
  5627  2583  2651   un
  5628  2584  2652   un
  5629  2585  2712   un
  5630  2586  2711   un
  5631  2587  2704   un
  5632  2588  2701   un
  5633  2588  2833   un
  5634  2589  2703   un
  5635  2590  2702   un
  5636  2591  2708   un
  5637  2592  2705   un
  5638  2593  2707   un
  5639  2594  2706   un
  5640  2594  2841   un
  5641  2595  2724   un
  5642  2596  2721   un
  5643  2596  2847   un
  5644  2597  2723   un
  5645  2598  2722   un
  5646  2598  2849   un
  5647  2599  2716   un
  5648  2600  2713   un
  5649  2600  2853   un
  5650  2601  2715   un
  5651  2602  2714   un
  5652  2602  2854   un
  5653  2603  2720   un
  5654  2604  2717   un
  5655  2604  2856   un
  5656  2605  2719   un
  5657  2606  2718   un
  5658  2606  2859   un
  5659  2607  2652   un
  5660  2607  2827   un
  5661  2608  2649   un
  5662  2608  2829   un
  5663  2609  2651   un
  5664  2610  2650   un
  5665  2611  2644   un
  5666  2611  2832   un
  5667  2612  2641   un
  5668  2612  2835   un
  5669  2613  2643   un
  5670  2614  2642   un
  5671  2615  2648   un
  5672  2615  2838   un
  5673  2616  2645   un
  5674  2616  2840   un
  5675  2617  2647   un
  5676  2618  2646   un
  5677  2619  2640   un
  5678  2619  2845   un
  5679  2620  2637   un
  5680  2621  2639   un
  5681  2622  2638   un
  5682  2623  2632   un
  5683  2623  2850   un
  5684  2624  2629   un
  5685  2624  2851   un
  5686  2625  2631   un
  5687  2626  2630   un
  5688  2627  2635   un
  5689  2628  2634   un
  5690  2629  2653   un
  5691  2630  2654   un
  5692  2631  2655   un
  5693  2632  2656   un
  5694  2633  2657   un
  5695  2634  2658   un
  5696  2635  2659   un
  5697  2636  2660   un
  5698  2637  2661   un
  5699  2638  2662   un
  5700  2639  2663   un
  5701  2640  2664   un
  5702  2641  2665   un
  5703  2642  2666   un
  5704  2643  2667   un
  5705  2644  2668   un
  5706  2645  2669   un
  5707  2646  2670   un
  5708  2647  2671   un
  5709  2648  2672   un
  5710  2649  2673   un
  5711  2650  2674   un
  5712  2651  2675   un
  5713  2652  2676   un
  5714  2653  2654   un
  5715  2653  2677    1
  5716  2654  2678    1
  5717  2655  2656   un
  5718  2655  2679    1
  5719  2656  2680    1
  5720  2657  2658   un
  5721  2657  2681    1
  5722  2658  2682    1
  5723  2659  2660   un
  5724  2659  2683    1
  5725  2660  2684    1
  5726  2661  2662   un
  5727  2661  2685    1
  5728  2662  2686    1
  5729  2663  2664   un
  5730  2663  2687    1
  5731  2664  2688    1
  5732  2665  2666   un
  5733  2665  2689    1
  5734  2666  2690    1
  5735  2667  2668   un
  5736  2667  2691    1
  5737  2668  2692    1
  5738  2669  2670   un
  5739  2669  2693    1
  5740  2670  2694    1
  5741  2671  2672   un
  5742  2671  2695    1
  5743  2672  2696    1
  5744  2673  2674   un
  5745  2673  2697    1
  5746  2674  2698    1
  5747  2675  2676   un
  5748  2675  2699    1
  5749  2676  2700    1
  5750  2701  2725   un
  5751  2702  2726   un
  5752  2703  2727   un
  5753  2704  2728   un
  5754  2705  2729   un
  5755  2706  2730   un
  5756  2707  2731   un
  5757  2708  2732   un
  5758  2709  2733   un
  5759  2710  2734   un
  5760  2711  2735   un
  5761  2712  2736   un
  5762  2713  2737   un
  5763  2714  2738   un
  5764  2715  2739   un
  5765  2716  2740   un
  5766  2717  2741   un
  5767  2718  2742   un
  5768  2719  2743   un
  5769  2720  2744   un
  5770  2721  2745   un
  5771  2722  2746   un
  5772  2723  2747   un
  5773  2724  2748   un
  5774  2725  2726   un
  5775  2725  2749    1
  5776  2726  2750    1
  5777  2727  2728   un
  5778  2727  2751    1
  5779  2728  2752    1
  5780  2729  2730   un
  5781  2729  2753    1
  5782  2730  2754    1
  5783  2731  2732   un
  5784  2731  2755    1
  5785  2732  2756    1
  5786  2733  2734   un
  5787  2733  2757    1
  5788  2734  2758    1
  5789  2735  2736   un
  5790  2735  2759    1
  5791  2736  2760    1
  5792  2737  2738   un
  5793  2737  2761    1
  5794  2738  2762    1
  5795  2739  2740   un
  5796  2739  2763    1
  5797  2740  2764    1
  5798  2741  2742   un
  5799  2741  2765    1
  5800  2742  2766    1
  5801  2743  2744   un
  5802  2743  2767    1
  5803  2744  2768    1
  5804  2745  2746   un
  5805  2745  2769    1
  5806  2746  2770    1
  5807  2747  2748   un
  5808  2747  2771    1
  5809  2748  2772    1
  5810  2773  2800    1
  5811  2773  2827    1
  5812  2773  2852    1
  5813  2774  2801    1
  5814  2774  2829    1
  5815  2774  2854    1
  5816  2775  2802    1
  5817  2776  2803    1
  5818  2776  2850    1
  5819  2777  2804    1
  5820  2777  2832    1
  5821  2778  2805    1
  5822  2778  2835    1
  5823  2778  2859    1
  5824  2779  2806    1
  5825  2780  2807    1
  5826  2780  2838    1
  5827  2780  2846    1
  5828  2781  2808    1
  5829  2781  2840    1
  5830  2781  2849    1
  5831  2782  2809    1
  5832  2783  2810    1
  5833  2783  2845    1
  5834  2784  2811    1
  5835  2784  2834    1
  5836  2784  2845    1
  5837  2785  2812    1
  5838  2786  2813    1
  5839  2787  2814    1
  5840  2787  2832    1
  5841  2788  2815    1
  5842  2788  2839    1
  5843  2788  2850    1
  5844  2789  2816    1
  5845  2789  2841    1
  5846  2789  2851    1
  5847  2790  2817    1
  5848  2791  2818    1
  5849  2791  2838    1
  5850  2792  2819    1
  5851  2793  2820    1
  5852  2793  2827    1
  5853  2794  2821    1
  5854  2794  2833    1
  5855  2794  2841    1
  5856  2795  2822    1
  5857  2796  2823    1
  5858  2796  2853    1
  5859  2796  2859    1
  5860  2797  2824    1
  5861  2797  2847    1
  5862  2797  2854    1
  5863  2798  2825    1
  5864  2799  2826    1
  5865  2799  2849    1
  5866  2799  2856    1
  5867  2800  2827    1
  5868  2800  2852    1
  5869  2801  2829    1
  5870  2801  2854    1
  5871  2803  2850    1
  5872  2804  2832    1
  5873  2805  2835    1
  5874  2805  2859    1
  5875  2807  2838    1
  5876  2807  2846    1
  5877  2808  2840    1
  5878  2808  2849    1
  5879  2810  2845    1
  5880  2811  2834    1
  5881  2811  2845    1
  5882  2814  2832    1
  5883  2815  2839    1
  5884  2815  2850    1
  5885  2816  2841    1
  5886  2816  2851    1
  5887  2818  2838    1
  5888  2820  2827    1
  5889  2821  2833    1
  5890  2821  2841    1
  5891  2823  2853    1
  5892  2823  2859    1
  5893  2824  2847    1
  5894  2824  2854    1
  5895  2826  2849    1
  5896  2826  2856    1
  5897  2827  2842   un
  5898  2827  2852   un
  5899  2827  2908    1
  5900  2827  2935    1
  5901  2827  2957   un
  5902  2827  2977   un
  5903  2827  3001   un
  5904  2827  3198    1
  5905  2827  3221    1
  5906  2828  2834   un
  5907  2828  2858   un
  5908  2828  2891    1
  5909  2828  2903    1
  5910  2828  2909    1
  5911  2828  2918    1
  5912  2828  2930    1
  5913  2828  2936    1
  5914  2828  5911   un
  5915  2828  5931   un
  5916  2828  5955   un
  5917  2828  6221   un
  5918  2828  6242    1
  5919  2828  6262    1
  5920  2829  2837   un
  5921  2829  2854   un
  5922  2829  2905    1
  5923  2829  2932    1
  5924  2829  2978   un
  5925  2829  3200    1
  5926  2829  3223    1
  5927  2829  3239   un
  5928  2829  3254   un
  5929  2829  3262   un
  5930  2829  3294    1
  5931  2829  3315    1
  5932  2830  2840   un
  5933  2830  2856   un
  5934  2830  2893    1
  5935  2830  2902    1
  5936  2830  2920    1
  5937  2830  2929    1
  5938  2830  5934   un
  5939  2830  5978   un
  5940  2830  6186   un
  5941  2830  6206   un
  5942  2830  6214   un
  5943  2830  6241    1
  5944  2830  6245    1
  5945  2830  6261    1
  5946  2830  6265    1
  5947  2831  2839   un
  5948  2831  2848   un
  5949  2831  2894    1
  5950  2831  2906    1
  5951  2831  2911    1
  5952  2831  2921    1
  5953  2831  2933    1
  5954  2831  2938    1
  5955  2832  2912    1
  5956  2832  2939    1
  5957  2832  5207    1
  5958  2832  5225    1
  5959  2832  5913   un
  5960  2832  5935   un
  5961  2832  5957   un
  5962  2833  2841   un
  5963  2833  2857   un
  5964  2833  2907    1
  5965  2833  2934    1
  5966  2834  2845   un
  5967  2834  2858   un
  5968  2834  2909    1
  5969  2834  2936    1
  5970  2834  5914   un
  5971  2834  5958   un
  5972  2834  6242    1
  5973  2834  6262    1
  5974  2835  2843   un
  5975  2835  2859   un
  5976  2835  2899    1
  5977  2835  2926    1
  5978  2835  3232   un
  5979  2835  3293    1
  5980  2835  3314    1
  5981  2835  5936   un
  5982  2835  6155    1
  5983  2835  6177    1
  5984  2835  6207   un
  5985  2835  6215   un
  5986  2836  2838   un
  5987  2836  2846   un
  5988  2836  2855   un
  5989  2836  2904    1
  5990  2836  2910    1
  5991  2836  2931    1
  5992  2836  2937    1
  5993  2837  2847   un
  5994  2837  2896    1
  5995  2837  2905    1
  5996  2837  2923    1
  5997  2837  2932    1
  5998  2837  3239   un
  5999  2837  3294    1
  6000  2837  3315    1
  6001  2838  2846   un
  6002  2838  2910    1
  6003  2838  2937    1
  6004  2839  2848   un
  6005  2839  2850   un
  6006  2839  2911    1
  6007  2839  2938    1
  6008  2840  2849   un
  6009  2840  2902    1
  6010  2840  2929    1
  6011  2840  6186   un
  6012  2840  6245    1
  6013  2840  6265    1
  6014  2841  2851   un
  6015  2842  2844   un
  6016  2842  2852   un
  6017  2842  2898    1
  6018  2842  2908    1
  6019  2842  2925    1
  6020  2842  2935    1
  6021  2842  2964   un
  6022  2842  3008   un
  6023  2842  3198    1
  6024  2842  3221    1
  6025  2843  2853   un
  6026  2843  2897    1
  6027  2843  2899    1
  6028  2843  2924    1
  6029  2843  2926    1
  6030  2843  2988   un
  6031  2843  3032   un
  6032  2843  3232   un
  6033  2843  3259   un
  6034  2843  3267   un
  6035  2843  3289    1
  6036  2843  3293    1
  6037  2843  3310    1
  6038  2843  3314    1
  6039  2844  2852   un
  6040  2844  2895    1
  6041  2844  2898    1
  6042  2844  2913    1
  6043  2844  2922    1
  6044  2844  2925    1
  6045  2844  2940    1
  6046  2845  2858   un
  6047  2845  2914    1
  6048  2845  2941    1
  6049  2846  2855   un
  6050  2846  2915    1
  6051  2846  2942    1
  6052  2847  2854   un
  6053  2847  2896    1
  6054  2847  2923    1
  6055  2847  3192    1
  6056  2847  3215    1
  6057  2847  3239   un
  6058  2848  2850   un
  6059  2848  2894    1
  6060  2848  2916    1
  6061  2848  2921    1
  6062  2848  2943    1
  6063  2849  2856   un
  6064  2849  6186   un
  6065  2849  6232    1
  6066  2849  6252    1
  6067  2850  2916    1
  6068  2850  2943    1
  6069  2851  2857   un
  6070  2851  2890    1
  6071  2851  2917    1
  6072  2852  2913    1
  6073  2852  2940    1
  6074  2852  3036   un
  6075  2852  3198    1
  6076  2852  3221    1
  6077  2853  2859   un
  6078  2853  2897    1
  6079  2853  2924    1
  6080  2853  2994   un
  6081  2853  3232   un
  6082  2853  3275   un
  6083  2853  3278    1
  6084  2853  3289    1
  6085  2853  3299    1
  6086  2853  3310    1
  6087  2854  2996   un
  6088  2854  3038   un
  6089  2854  3192    1
  6090  2854  3200    1
  6091  2854  3215    1
  6092  2854  3223    1
  6093  2854  3239   un
  6094  2855  2892    1
  6095  2855  2904    1
  6096  2855  2915    1
  6097  2855  2919    1
  6098  2855  2931    1
  6099  2855  2942    1
  6100  2856  2893    1
  6101  2856  2920    1
  6102  2856  5952   un
  6103  2856  6186   un
  6104  2856  6228   un
  6105  2856  6232    1
  6106  2856  6241    1
  6107  2856  6252    1
  6108  2856  6261    1
  6109  2857  2890    1
  6110  2857  2907    1
  6111  2857  2917    1
  6112  2857  2934    1
  6113  2858  2891    1
  6114  2858  2914    1
  6115  2858  2918    1
  6116  2858  2941    1
  6117  2858  6242    1
  6118  2858  6262    1
  6119  2859  3232   un
  6120  2859  3278    1
  6121  2859  3299    1
  6122  2859  5954   un
  6123  2859  5994   un
  6124  2859  6155    1
  6125  2859  6177    1
  6126  2862  3118   un
  6127  2863  3120   un
  6128  2864  6076   un
  6129  2865  6078   un
  6130  2872  3113   un
  6131  2873  3114   un
  6132  2874  6071   un
  6133  2875  6072   un
  6134  2884  3052   un
  6135  2885  3049   un
  6136  2886  5998   un
  6137  2887  5995   un
  6138  2890  2917    1
  6139  2891  2918    1
  6140  2892  2919    1
  6141  2893  2920    1
  6142  2894  2921    1
  6143  2895  2922    1
  6144  2896  2923    1
  6145  2897  2924    1
  6146  2898  2925    1
  6147  2899  2926    1
  6148  2900  2927    1
  6149  2901  2928    1
  6150  2902  2929    1
  6151  2903  2930    1
  6152  2904  2931    1
  6153  2905  2932    1
  6154  2906  2933    1
  6155  2907  2934    1
  6156  2908  2935    1
  6157  2909  2936    1
  6158  2910  2937    1
  6159  2911  2938    1
  6160  2912  2939    1
  6161  2913  2940    1
  6162  2914  2941    1
  6163  2915  2942    1
  6164  2916  2943    1
  6165  2944  2947   un
  6166  2944  2948   un
  6167  2944  2952   un
  6168  2944  2955   un
  6169  2944  2958   un
  6170  2944  2979   un
  6171  2944  3002   un
  6172  2944  3023   un
  6173  2944  3187    1
  6174  2944  3199    1
  6175  2944  3201    1
  6176  2944  3203    1
  6177  2944  3210    1
  6178  2944  3222    1
  6179  2944  3224    1
  6180  2944  3226    1
  6181  2945  2954   un
  6182  2945  2980   un
  6183  2945  3024   un
  6184  2945  3188    1
  6185  2945  3197    1
  6186  2945  3211    1
  6187  2945  3220    1
  6188  2945  3235   un
  6189  2945  3240   un
  6190  2945  3248   un
  6191  2945  3255   un
  6192  2945  3263   un
  6193  2945  3291    1
  6194  2945  3295    1
  6195  2945  3312    1
  6196  2945  3316    1
  6197  2946  2956   un
  6198  2946  2982   un
  6199  2946  3202    1
  6200  2946  3225    1
  6201  2946  3231   un
  6202  2946  3242   un
  6203  2946  3244   un
  6204  2946  3256   un
  6205  2946  3264   un
  6206  2946  3271   un
  6207  2946  3281    1
  6208  2946  3284    1
  6209  2946  3292    1
  6210  2946  3302    1
  6211  2946  3305    1
  6212  2946  3313    1
  6213  2947  2948   un
  6214  2947  2950   un
  6215  2947  2955   un
  6216  2947  2960   un
  6217  2947  2983   un
  6218  2947  3004   un
  6219  2947  3027   un
  6220  2947  3191    1
  6221  2947  3195    1
  6222  2947  3201    1
  6223  2947  3203    1
  6224  2947  3214    1
  6225  2947  3218    1
  6226  2947  3224    1
  6227  2947  3226    1
  6228  2948  2950   un
  6229  2948  2952   un
  6230  2948  2963   un
  6231  2948  2987   un
  6232  2948  3007   un
  6233  2948  3031   un
  6234  2948  3194    1
  6235  2948  3195    1
  6236  2948  3199    1
  6237  2948  3203    1
  6238  2948  3217    1
  6239  2948  3218    1
  6240  2948  3222    1
  6241  2948  3226    1
  6242  2949  2965   un
  6243  2949  2989   un
  6244  2949  3009   un
  6245  2949  3190    1
  6246  2949  3204    1
  6247  2949  3213    1
  6248  2949  3227    1
  6249  2949  3237   un
  6250  2949  3243   un
  6251  2949  3250   un
  6252  2949  3253   un
  6253  2949  3272   un
  6254  2949  3283    1
  6255  2949  3285    1
  6256  2949  3304    1
  6257  2949  3306    1
  6258  2950  2952   un
  6259  2950  2955   un
  6260  2950  2967   un
  6261  2950  2991   un
  6262  2950  3011   un
  6263  2950  3033   un
  6264  2950  3191    1
  6265  2950  3194    1
  6266  2950  3195    1
  6267  2950  3206    1
  6268  2950  3214    1
  6269  2950  3217    1
  6270  2950  3218    1
  6271  2950  3229    1
  6272  2951  2969   un
  6273  2951  2993   un
  6274  2951  3013   un
  6275  2951  3193    1
  6276  2951  3207    1
  6277  2951  3216    1
  6278  2951  3230    1
  6279  2951  3234   un
  6280  2951  3241   un
  6281  2951  3247   un
  6282  2951  3252   un
  6283  2951  3274   un
  6284  2951  3279    1
  6285  2951  3288    1
  6286  2951  3300    1
  6287  2951  3309    1
  6288  2952  2955   un
  6289  2952  2971   un
  6290  2952  2995   un
  6291  2952  3015   un
  6292  2952  3037   un
  6293  2952  3187    1
  6294  2952  3194    1
  6295  2952  3199    1
  6296  2952  3206    1
  6297  2952  3210    1
  6298  2952  3217    1
  6299  2952  3222    1
  6300  2952  3229    1
  6301  2953  2973   un
  6302  2953  2997   un
  6303  2953  3017   un
  6304  2953  3186    1
  6305  2953  3205    1
  6306  2953  3209    1
  6307  2953  3228    1
  6308  2953  3233   un
  6309  2953  3238   un
  6310  2953  3245   un
  6311  2953  3251   un
  6312  2953  3276   un
  6313  2953  3282    1
  6314  2953  3290    1
  6315  2953  3303    1
  6316  2953  3311    1
  6317  2954  2998   un
  6318  2954  3188    1
  6319  2954  3211    1
  6320  2954  3235   un
  6321  2954  3246   un
  6322  2954  3248   un
  6323  2954  3260   un
  6324  2954  3268   un
  6325  2954  3277   un
  6326  2954  3280    1
  6327  2954  3291    1
  6328  2954  3298    1
  6329  2954  3301    1
  6330  2954  3312    1
  6331  2954  3319    1
  6332  2955  2975   un
  6333  2955  2999   un
  6334  2955  3019   un
  6335  2955  3039   un
  6336  2955  3187    1
  6337  2955  3191    1
  6338  2955  3201    1
  6339  2955  3206    1
  6340  2955  3210    1
  6341  2955  3214    1
  6342  2955  3224    1
  6343  2955  3229    1
  6344  2956  3000   un
  6345  2956  3040   un
  6346  2956  3185    1
  6347  2956  3202    1
  6348  2956  3208    1
  6349  2956  3225    1
  6350  2956  3231   un
  6351  2956  3244   un
  6352  2956  3249   un
  6353  2956  3261   un
  6354  2956  3269   un
  6355  2956  3281    1
  6356  2956  3297    1
  6357  2956  3302    1
  6358  2956  3318    1
  6359  2957  3113   un
  6360  2958  3115   un
  6361  2959  3117   un
  6362  2960  3119   un
  6363  2961  3121   un
  6364  2962  3122   un
  6365  2963  3123   un
  6366  2964  3124   un
  6367  2965  3125   un
  6368  2966  3126   un
  6369  2966  3245   un
  6370  2967  3127   un
  6371  2968  3128   un
  6372  2968  3247   un
  6373  2969  3129   un
  6374  2970  3130   un
  6375  2970  3250   un
  6376  2971  3131   un
  6377  2972  3132   un
  6378  2972  3251   un
  6379  2973  3133   un
  6380  2974  3134   un
  6381  2974  3252   un
  6382  2975  3135   un
  6383  2976  3136   un
  6384  2976  3253   un
  6385  2977  3041   un
  6386  2978  3042   un
  6387  2979  3043   un
  6388  2980  3044   un
  6389  2981  3045   un
  6390  2982  3046   un
  6391  2983  3047   un
  6392  2984  3048   un
  6393  2985  3049   un
  6394  2986  3050   un
  6395  2987  3051   un
  6396  2988  3052   un
  6397  2989  3053   un
  6398  2990  3054   un
  6399  2991  3055   un
  6400  2992  3056   un
  6401  2993  3057   un
  6402  2994  3058   un
  6403  2995  3059   un
  6404  2996  3060   un
  6405  2997  3061   un
  6406  2998  3062   un
  6407  2999  3063   un
  6408  3000  3064   un
  6409  3001  3124   un
  6410  3002  3123   un
  6411  3003  3116   un
  6412  3004  3115   un
  6413  3005  3120   un
  6414  3006  3117   un
  6415  3007  3119   un
  6416  3008  3118   un
  6417  3009  3136   un
  6418  3010  3133   un
  6419  3010  3245   un
  6420  3011  3135   un
  6421  3012  3134   un
  6422  3012  3247   un
  6423  3013  3128   un
  6424  3014  3125   un
  6425  3014  3250   un
  6426  3015  3127   un
  6427  3016  3126   un
  6428  3016  3251   un
  6429  3017  3132   un
  6430  3018  3129   un
  6431  3018  3252   un
  6432  3019  3131   un
  6433  3020  3130   un
  6434  3020  3253   un
  6435  3021  3064   un
  6436  3021  3231   un
  6437  3022  3061   un
  6438  3022  3233   un
  6439  3023  3063   un
  6440  3024  3062   un
  6441  3025  3056   un
  6442  3025  3236   un
  6443  3026  3053   un
  6444  3026  3237   un
  6445  3027  3055   un
  6446  3028  3054   un
  6447  3029  3060   un
  6448  3029  3239   un
  6449  3030  3057   un
  6450  3030  3241   un
  6451  3031  3059   un
  6452  3032  3058   un
  6453  3033  3051   un
  6454  3034  3050   un
  6455  3035  3044   un
  6456  3035  3248   un
  6457  3036  3041   un
  6458  3037  3043   un
  6459  3038  3042   un
  6460  3039  3047   un
  6461  3040  3046   un
  6462  3041  3065   un
  6463  3042  3066   un
  6464  3043  3067   un
  6465  3044  3068   un
  6466  3045  3069   un
  6467  3046  3070   un
  6468  3047  3071   un
  6469  3048  3072   un
  6470  3049  3073   un
  6471  3050  3074   un
  6472  3051  3075   un
  6473  3052  3076   un
  6474  3053  3077   un
  6475  3054  3078   un
  6476  3055  3079   un
  6477  3056  3080   un
  6478  3057  3081   un
  6479  3058  3082   un
  6480  3059  3083   un
  6481  3060  3084   un
  6482  3061  3085   un
  6483  3062  3086   un
  6484  3063  3087   un
  6485  3064  3088   un
  6486  3065  3066   un
  6487  3065  3089    1
  6488  3066  3090    1
  6489  3067  3068   un
  6490  3067  3091    1
  6491  3068  3092    1
  6492  3069  3070   un
  6493  3069  3093    1
  6494  3070  3094    1
  6495  3071  3072   un
  6496  3071  3095    1
  6497  3072  3096    1
  6498  3073  3074   un
  6499  3073  3097    1
  6500  3074  3098    1
  6501  3075  3076   un
  6502  3075  3099    1
  6503  3076  3100    1
  6504  3077  3078   un
  6505  3077  3101    1
  6506  3078  3102    1
  6507  3079  3080   un
  6508  3079  3103    1
  6509  3080  3104    1
  6510  3081  3082   un
  6511  3081  3105    1
  6512  3082  3106    1
  6513  3083  3084   un
  6514  3083  3107    1
  6515  3084  3108    1
  6516  3085  3086   un
  6517  3085  3109    1
  6518  3086  3110    1
  6519  3087  3088   un
  6520  3087  3111    1
  6521  3088  3112    1
  6522  3113  3137   un
  6523  3114  3138   un
  6524  3115  3139   un
  6525  3116  3140   un
  6526  3117  3141   un
  6527  3118  3142   un
  6528  3119  3143   un
  6529  3120  3144   un
  6530  3121  3145   un
  6531  3122  3146   un
  6532  3123  3147   un
  6533  3124  3148   un
  6534  3125  3149   un
  6535  3126  3150   un
  6536  3127  3151   un
  6537  3128  3152   un
  6538  3129  3153   un
  6539  3130  3154   un
  6540  3131  3155   un
  6541  3132  3156   un
  6542  3133  3157   un
  6543  3134  3158   un
  6544  3135  3159   un
  6545  3136  3160   un
  6546  3137  3138   un
  6547  3137  3161    1
  6548  3138  3162    1
  6549  3139  3140   un
  6550  3139  3163    1
  6551  3140  3164    1
  6552  3141  3142   un
  6553  3141  3165    1
  6554  3142  3166    1
  6555  3143  3144   un
  6556  3143  3167    1
  6557  3144  3168    1
  6558  3145  3146   un
  6559  3145  3169    1
  6560  3146  3170    1
  6561  3147  3148   un
  6562  3147  3171    1
  6563  3148  3172    1
  6564  3149  3150   un
  6565  3149  3173    1
  6566  3150  3174    1
  6567  3151  3152   un
  6568  3151  3175    1
  6569  3152  3176    1
  6570  3153  3154   un
  6571  3153  3177    1
  6572  3154  3178    1
  6573  3155  3156   un
  6574  3155  3179    1
  6575  3156  3180    1
  6576  3157  3158   un
  6577  3157  3181    1
  6578  3158  3182    1
  6579  3159  3160   un
  6580  3159  3183    1
  6581  3160  3184    1
  6582  3185  3208    1
  6583  3185  3231    1
  6584  3185  3249    1
  6585  3186  3209    1
  6586  3186  3233    1
  6587  3186  3251    1
  6588  3187  3210    1
  6589  3188  3211    1
  6590  3188  3248    1
  6591  3189  3212    1
  6592  3189  3236    1
  6593  3190  3213    1
  6594  3190  3237    1
  6595  3190  3253    1
  6596  3191  3214    1
  6597  3192  3215    1
  6598  3192  3239    1
  6599  3193  3216    1
  6600  3193  3241    1
  6601  3193  3247    1
  6602  3194  3217    1
  6603  3195  3218    1
  6604  3196  3219    1
  6605  3196  3236    1
  6606  3197  3220    1
  6607  3197  3240    1
  6608  3197  3248    1
  6609  3198  3221    1
  6610  3199  3222    1
  6611  3200  3223    1
  6612  3200  3239    1
  6613  3201  3224    1
  6614  3202  3225    1
  6615  3202  3231    1
  6616  3203  3226    1
  6617  3204  3227    1
  6618  3204  3250    1
  6619  3204  3253    1
  6620  3205  3228    1
  6621  3205  3245    1
  6622  3205  3251    1
  6623  3206  3229    1
  6624  3207  3230    1
  6625  3207  3247    1
  6626  3207  3252    1
  6627  3208  3231    1
  6628  3208  3249    1
  6629  3209  3233    1
  6630  3209  3251    1
  6631  3211  3248    1
  6632  3212  3236    1
  6633  3213  3237    1
  6634  3213  3253    1
  6635  3215  3239    1
  6636  3216  3241    1
  6637  3216  3247    1
  6638  3219  3236    1
  6639  3220  3240    1
  6640  3220  3248    1
  6641  3223  3239    1
  6642  3225  3231    1
  6643  3227  3250    1
  6644  3227  3253    1
  6645  3228  3245    1
  6646  3228  3251    1
  6647  3230  3247    1
  6648  3230  3252    1
  6649  3231  3242   un
  6650  3231  3249   un
  6651  3231  3292    1
  6652  3231  3313    1
  6653  3231  3333   un
  6654  3231  3353   un
  6655  3231  3377   un
  6656  3231  3574    1
  6657  3231  3597    1
  6658  3232  3278    1
  6659  3232  3289    1
  6660  3232  3293    1
  6661  3232  3299    1
  6662  3232  3310    1
  6663  3232  3314    1
  6664  3232  5975   un
  6665  3232  6155    1
  6666  3232  6177    1
  6667  3232  6278   un
  6668  3232  6296   un
  6669  3232  6320   un
  6670  3233  3238   un
  6671  3233  3251   un
  6672  3233  3290    1
  6673  3233  3311    1
  6674  3233  3354   un
  6675  3233  3576    1
  6676  3233  3599    1
  6677  3233  3616   un
  6678  3233  3631   un
  6679  3233  3639   un
  6680  3233  3673    1
  6681  3233  3696    1
  6682  3234  3241   un
  6683  3234  3252   un
  6684  3234  3279    1
  6685  3234  3288    1
  6686  3234  3300    1
  6687  3234  3309    1
  6688  3234  6299   un
  6689  3234  6341   un
  6690  3234  6541   un
  6691  3234  6555   un
  6692  3234  6561   un
  6693  3234  6582    1
  6694  3234  6585    1
  6695  3234  6597    1
  6696  3234  6600    1
  6697  3235  3240   un
  6698  3235  3246   un
  6699  3235  3280    1
  6700  3235  3291    1
  6701  3235  3295    1
  6702  3235  3301    1
  6703  3235  3312    1
  6704  3235  3316    1
  6705  3236  3296    1
  6706  3236  3317    1
  6707  3236  5543    1
  6708  3236  5556    1
  6709  3236  6280   un
  6710  3236  6300   un
  6711  3236  6322   un
  6712  3237  3243   un
  6713  3237  3253   un
  6714  3237  3285    1
  6715  3237  3306    1
  6716  3237  3608   un
  6717  3237  3671    1
  6718  3237  3694    1
  6719  3237  6301   un
  6720  3237  6513    1
  6721  3237  6532    1
  6722  3237  6556   un
  6723  3237  6562   un
  6724  3238  3245   un
  6725  3238  3282    1
  6726  3238  3290    1
  6727  3238  3303    1
  6728  3238  3311    1
  6729  3238  3616   un
  6730  3238  3673    1
  6731  3238  3696    1
  6732  3239  3294    1
  6733  3239  3315    1
  6734  3240  3246   un
  6735  3240  3248   un
  6736  3240  3295    1
  6737  3240  3316    1
  6738  3241  3247   un
  6739  3241  3288    1
  6740  3241  3309    1
  6741  3241  6541   un
  6742  3241  6585    1
  6743  3241  6600    1
  6744  3242  3244   un
  6745  3242  3249   un
  6746  3242  3284    1
  6747  3242  3292    1
  6748  3242  3305    1
  6749  3242  3313    1
  6750  3242  3340   un
  6751  3242  3384   un
  6752  3242  3574    1
  6753  3242  3597    1
  6754  3243  3250   un
  6755  3243  3283    1
  6756  3243  3285    1
  6757  3243  3304    1
  6758  3243  3306    1
  6759  3243  3364   un
  6760  3243  3408   un
  6761  3243  3608   un
  6762  3243  3636   un
  6763  3243  3644   un
  6764  3243  3667    1
  6765  3243  3671    1
  6766  3243  3690    1
  6767  3243  3694    1
  6768  3244  3249   un
  6769  3244  3281    1
  6770  3244  3284    1
  6771  3244  3297    1
  6772  3244  3302    1
  6773  3244  3305    1
  6774  3244  3318    1
  6775  3245  3251   un
  6776  3245  3282    1
  6777  3245  3303    1
  6778  3245  3568    1
  6779  3245  3591    1
  6780  3245  3616   un
  6781  3246  3248   un
  6782  3246  3280    1
  6783  3246  3298    1
  6784  3246  3301    1
  6785  3246  3319    1
  6786  3247  3252   un
  6787  3247  6541   un
  6788  3247  6574    1
  6789  3247  6589    1
  6790  3248  3298    1
  6791  3248  3319    1
  6792  3249  3297    1
  6793  3249  3318    1
  6794  3249  3412   un
  6795  3249  3574    1
  6796  3249  3597    1
  6797  3250  3253   un
  6798  3250  3283    1
  6799  3250  3304    1
  6800  3250  3370   un
  6801  3250  3608   un
  6802  3250  3652   un
  6803  3250  3655    1
  6804  3250  3667    1
  6805  3250  3678    1
  6806  3250  3690    1
  6807  3251  3372   un
  6808  3251  3414   un
  6809  3251  3568    1
  6810  3251  3576    1
  6811  3251  3591    1
  6812  3251  3599    1
  6813  3251  3616   un
  6814  3252  3279    1
  6815  3252  3300    1
  6816  3252  6317   un
  6817  3252  6541   un
  6818  3252  6571   un
  6819  3252  6574    1
  6820  3252  6582    1
  6821  3252  6589    1
  6822  3252  6597    1
  6823  3253  3608   un
  6824  3253  3655    1
  6825  3253  3678    1
  6826  3253  6319   un
  6827  3253  6355   un
  6828  3253  6513    1
  6829  3253  6532    1
  6830  3256  3494   un
  6831  3257  3496   un
  6832  3258  6437   un
  6833  3259  6439   un
  6834  3264  3489   un
  6835  3265  3490   un
  6836  3266  6432   un
  6837  3267  6433   un
  6838  3272  3428   un
  6839  3273  3425   un
  6840  3274  6359   un
  6841  3275  6356   un
  6842  3278  3299    1
  6843  3279  3300    1
  6844  3280  3301    1
  6845  3281  3302    1
  6846  3282  3303    1
  6847  3283  3304    1
  6848  3284  3305    1
  6849  3285  3306    1
  6850  3286  3307    1
  6851  3287  3308    1
  6852  3288  3309    1
  6853  3289  3310    1
  6854  3290  3311    1
  6855  3291  3312    1
  6856  3292  3313    1
  6857  3293  3314    1
  6858  3294  3315    1
  6859  3295  3316    1
  6860  3296  3317    1
  6861  3297  3318    1
  6862  3298  3319    1
  6863  3320  3323   un
  6864  3320  3324   un
  6865  3320  3328   un
  6866  3320  3331   un
  6867  3320  3334   un
  6868  3320  3355   un
  6869  3320  3378   un
  6870  3320  3399   un
  6871  3320  3563    1
  6872  3320  3575    1
  6873  3320  3577    1
  6874  3320  3579    1
  6875  3320  3586    1
  6876  3320  3598    1
  6877  3320  3600    1
  6878  3320  3602    1
  6879  3321  3330   un
  6880  3321  3356   un
  6881  3321  3400   un
  6882  3321  3564    1
  6883  3321  3573    1
  6884  3321  3587    1
  6885  3321  3596    1
  6886  3321  3611   un
  6887  3321  3617   un
  6888  3321  3625   un
  6889  3321  3632   un
  6890  3321  3640   un
  6891  3321  3669    1
  6892  3321  3674    1
  6893  3321  3692    1
  6894  3321  3697    1
  6895  3322  3332   un
  6896  3322  3358   un
  6897  3322  3578    1
  6898  3322  3601    1
  6899  3322  3607   un
  6900  3322  3619   un
  6901  3322  3621   un
  6902  3322  3633   un
  6903  3322  3641   un
  6904  3322  3648   un
  6905  3322  3658    1
  6906  3322  3662    1
  6907  3322  3670    1
  6908  3322  3681    1
  6909  3322  3685    1
  6910  3322  3693    1
  6911  3323  3324   un
  6912  3323  3326   un
  6913  3323  3331   un
  6914  3323  3336   un
  6915  3323  3359   un
  6916  3323  3380   un
  6917  3323  3403   un
  6918  3323  3567    1
  6919  3323  3571    1
  6920  3323  3577    1
  6921  3323  3579    1
  6922  3323  3590    1
  6923  3323  3594    1
  6924  3323  3600    1
  6925  3323  3602    1
  6926  3324  3326   un
  6927  3324  3328   un
  6928  3324  3339   un
  6929  3324  3363   un
  6930  3324  3383   un
  6931  3324  3407   un
  6932  3324  3570    1
  6933  3324  3571    1
  6934  3324  3575    1
  6935  3324  3579    1
  6936  3324  3593    1
  6937  3324  3594    1
  6938  3324  3598    1
  6939  3324  3602    1
  6940  3325  3341   un
  6941  3325  3365   un
  6942  3325  3385   un
  6943  3325  3566    1
  6944  3325  3580    1
  6945  3325  3589    1
  6946  3325  3603    1
  6947  3325  3613   un
  6948  3325  3620   un
  6949  3325  3627   un
  6950  3325  3630   un
  6951  3325  3649   un
  6952  3325  3661    1
  6953  3325  3663    1
  6954  3325  3684    1
  6955  3325  3686    1
  6956  3326  3328   un
  6957  3326  3331   un
  6958  3326  3343   un
  6959  3326  3367   un
  6960  3326  3387   un
  6961  3326  3409   un
  6962  3326  3567    1
  6963  3326  3570    1
  6964  3326  3571    1
  6965  3326  3582    1
  6966  3326  3590    1
  6967  3326  3593    1
  6968  3326  3594    1
  6969  3326  3605    1
  6970  3327  3345   un
  6971  3327  3369   un
  6972  3327  3389   un
  6973  3327  3569    1
  6974  3327  3583    1
  6975  3327  3592    1
  6976  3327  3606    1
  6977  3327  3610   un
  6978  3327  3618   un
  6979  3327  3624   un
  6980  3327  3629   un
  6981  3327  3651   un
  6982  3327  3656    1
  6983  3327  3666    1
  6984  3327  3679    1
  6985  3327  3689    1
  6986  3328  3331   un
  6987  3328  3347   un
  6988  3328  3371   un
  6989  3328  3391   un
  6990  3328  3413   un
  6991  3328  3563    1
  6992  3328  3570    1
  6993  3328  3575    1
  6994  3328  3582    1
  6995  3328  3586    1
  6996  3328  3593    1
  6997  3328  3598    1
  6998  3328  3605    1
  6999  3329  3349   un
  7000  3329  3373   un
  7001  3329  3393   un
  7002  3329  3562    1
  7003  3329  3581    1
  7004  3329  3585    1
  7005  3329  3604    1
  7006  3329  3609   un
  7007  3329  3614   un
  7008  3329  3622   un
  7009  3329  3628   un
  7010  3329  3653   un
  7011  3329  3659    1
  7012  3329  3668    1
  7013  3329  3682    1
  7014  3329  3691    1
  7015  3330  3374   un
  7016  3330  3564    1
  7017  3330  3587    1
  7018  3330  3611   un
  7019  3330  3623   un
  7020  3330  3625   un
  7021  3330  3637   un
  7022  3330  3645   un
  7023  3330  3654   un
  7024  3330  3657    1
  7025  3330  3669    1
  7026  3330  3677    1
  7027  3330  3680    1
  7028  3330  3692    1
  7029  3330  3700    1
  7030  3331  3351   un
  7031  3331  3375   un
  7032  3331  3395   un
  7033  3331  3415   un
  7034  3331  3563    1
  7035  3331  3567    1
  7036  3331  3577    1
  7037  3331  3582    1
  7038  3331  3586    1
  7039  3331  3590    1
  7040  3331  3600    1
  7041  3331  3605    1
  7042  3332  3376   un
  7043  3332  3416   un
  7044  3332  3561    1
  7045  3332  3578    1
  7046  3332  3584    1
  7047  3332  3601    1
  7048  3332  3607   un
  7049  3332  3621   un
  7050  3332  3626   un
  7051  3332  3638   un
  7052  3332  3646   un
  7053  3332  3658    1
  7054  3332  3676    1
  7055  3332  3681    1
  7056  3332  3699    1
  7057  3333  3489   un
  7058  3334  3491   un
  7059  3335  3493   un
  7060  3336  3495   un
  7061  3337  3497   un
  7062  3338  3498   un
  7063  3339  3499   un
  7064  3340  3500   un
  7065  3341  3501   un
  7066  3342  3502   un
  7067  3342  3622   un
  7068  3343  3503   un
  7069  3344  3504   un
  7070  3344  3624   un
  7071  3345  3505   un
  7072  3346  3506   un
  7073  3346  3627   un
  7074  3347  3507   un
  7075  3348  3508   un
  7076  3348  3628   un
  7077  3349  3509   un
  7078  3350  3510   un
  7079  3350  3629   un
  7080  3351  3511   un
  7081  3352  3512   un
  7082  3352  3630   un
  7083  3353  3417   un
  7084  3354  3418   un
  7085  3355  3419   un
  7086  3356  3420   un
  7087  3357  3421   un
  7088  3358  3422   un
  7089  3359  3423   un
  7090  3360  3424   un
  7091  3361  3425   un
  7092  3362  3426   un
  7093  3363  3427   un
  7094  3364  3428   un
  7095  3365  3429   un
  7096  3366  3430   un
  7097  3367  3431   un
  7098  3368  3432   un
  7099  3369  3433   un
  7100  3370  3434   un
  7101  3371  3435   un
  7102  3372  3436   un
  7103  3373  3437   un
  7104  3374  3438   un
  7105  3375  3439   un
  7106  3376  3440   un
  7107  3377  3500   un
  7108  3378  3499   un
  7109  3379  3492   un
  7110  3380  3491   un
  7111  3381  3496   un
  7112  3382  3493   un
  7113  3383  3495   un
  7114  3384  3494   un
  7115  3385  3512   un
  7116  3386  3509   un
  7117  3386  3622   un
  7118  3387  3511   un
  7119  3388  3510   un
  7120  3388  3624   un
  7121  3389  3504   un
  7122  3390  3501   un
  7123  3390  3627   un
  7124  3391  3503   un
  7125  3392  3502   un
  7126  3392  3628   un
  7127  3393  3508   un
  7128  3394  3505   un
  7129  3394  3629   un
  7130  3395  3507   un
  7131  3396  3506   un
  7132  3396  3630   un
  7133  3397  3440   un
  7134  3397  3607   un
  7135  3398  3437   un
  7136  3398  3609   un
  7137  3399  3439   un
  7138  3400  3438   un
  7139  3401  3432   un
  7140  3401  3612   un
  7141  3402  3429   un
  7142  3402  3613   un
  7143  3403  3431   un
  7144  3404  3430   un
  7145  3405  3436   un
  7146  3405  3616   un
  7147  3406  3433   un
  7148  3406  3618   un
  7149  3407  3435   un
  7150  3408  3434   un
  7151  3409  3427   un
  7152  3410  3426   un
  7153  3411  3420   un
  7154  3411  3625   un
  7155  3412  3417   un
  7156  3413  3419   un
  7157  3414  3418   un
  7158  3415  3423   un
  7159  3416  3422   un
  7160  3417  3441   un
  7161  3418  3442   un
  7162  3419  3443   un
  7163  3420  3444   un
  7164  3421  3445   un
  7165  3422  3446   un
  7166  3423  3447   un
  7167  3424  3448   un
  7168  3425  3449   un
  7169  3426  3450   un
  7170  3427  3451   un
  7171  3428  3452   un
  7172  3429  3453   un
  7173  3430  3454   un
  7174  3431  3455   un
  7175  3432  3456   un
  7176  3433  3457   un
  7177  3434  3458   un
  7178  3435  3459   un
  7179  3436  3460   un
  7180  3437  3461   un
  7181  3438  3462   un
  7182  3439  3463   un
  7183  3440  3464   un
  7184  3441  3442   un
  7185  3441  3465    1
  7186  3442  3466    1
  7187  3443  3444   un
  7188  3443  3467    1
  7189  3444  3468    1
  7190  3445  3446   un
  7191  3445  3469    1
  7192  3446  3470    1
  7193  3447  3448   un
  7194  3447  3471    1
  7195  3448  3472    1
  7196  3449  3450   un
  7197  3449  3473    1
  7198  3450  3474    1
  7199  3451  3452   un
  7200  3451  3475    1
  7201  3452  3476    1
  7202  3453  3454   un
  7203  3453  3477    1
  7204  3454  3478    1
  7205  3455  3456   un
  7206  3455  3479    1
  7207  3456  3480    1
  7208  3457  3458   un
  7209  3457  3481    1
  7210  3458  3482    1
  7211  3459  3460   un
  7212  3459  3483    1
  7213  3460  3484    1
  7214  3461  3462   un
  7215  3461  3485    1
  7216  3462  3486    1
  7217  3463  3464   un
  7218  3463  3487    1
  7219  3464  3488    1
  7220  3489  3513   un
  7221  3490  3514   un
  7222  3491  3515   un
  7223  3492  3516   un
  7224  3493  3517   un
  7225  3494  3518   un
  7226  3495  3519   un
  7227  3496  3520   un
  7228  3497  3521   un
  7229  3498  3522   un
  7230  3499  3523   un
  7231  3500  3524   un
  7232  3501  3525   un
  7233  3502  3526   un
  7234  3503  3527   un
  7235  3504  3528   un
  7236  3505  3529   un
  7237  3506  3530   un
  7238  3507  3531   un
  7239  3508  3532   un
  7240  3509  3533   un
  7241  3510  3534   un
  7242  3511  3535   un
  7243  3512  3536   un
  7244  3513  3514   un
  7245  3513  3537    1
  7246  3514  3538    1
  7247  3515  3516   un
  7248  3515  3539    1
  7249  3516  3540    1
  7250  3517  3518   un
  7251  3517  3541    1
  7252  3518  3542    1
  7253  3519  3520   un
  7254  3519  3543    1
  7255  3520  3544    1
  7256  3521  3522   un
  7257  3521  3545    1
  7258  3522  3546    1
  7259  3523  3524   un
  7260  3523  3547    1
  7261  3524  3548    1
  7262  3525  3526   un
  7263  3525  3549    1
  7264  3526  3550    1
  7265  3527  3528   un
  7266  3527  3551    1
  7267  3528  3552    1
  7268  3529  3530   un
  7269  3529  3553    1
  7270  3530  3554    1
  7271  3531  3532   un
  7272  3531  3555    1
  7273  3532  3556    1
  7274  3533  3534   un
  7275  3533  3557    1
  7276  3534  3558    1
  7277  3535  3536   un
  7278  3535  3559    1
  7279  3536  3560    1
  7280  3561  3584    1
  7281  3561  3607    1
  7282  3561  3626    1
  7283  3562  3585    1
  7284  3562  3609    1
  7285  3562  3628    1
  7286  3563  3586    1
  7287  3564  3587    1
  7288  3564  3625    1
  7289  3565  3588    1
  7290  3565  3612    1
  7291  3566  3589    1
  7292  3566  3613    1
  7293  3566  3630    1
  7294  3567  3590    1
  7295  3568  3591    1
  7296  3568  3616    1
  7297  3569  3592    1
  7298  3569  3618    1
  7299  3569  3624    1
  7300  3570  3593    1
  7301  3571  3594    1
  7302  3572  3595    1
  7303  3572  3612    1
  7304  3573  3596    1
  7305  3573  3617    1
  7306  3573  3625    1
  7307  3574  3597    1
  7308  3575  3598    1
  7309  3576  3599    1
  7310  3576  3616    1
  7311  3577  3600    1
  7312  3578  3601    1
  7313  3578  3607    1
  7314  3579  3602    1
  7315  3580  3603    1
  7316  3580  3627    1
  7317  3580  3630    1
  7318  3581  3604    1
  7319  3581  3622    1
  7320  3581  3628    1
  7321  3582  3605    1
  7322  3583  3606    1
  7323  3583  3624    1
  7324  3583  3629    1
  7325  3584  3607    1
  7326  3584  3626    1
  7327  3585  3609    1
  7328  3585  3628    1
  7329  3587  3625    1
  7330  3588  3612    1
  7331  3589  3613    1
  7332  3589  3630    1
  7333  3591  3616    1
  7334  3592  3618    1
  7335  3592  3624    1
  7336  3595  3612    1
  7337  3596  3617    1
  7338  3596  3625    1
  7339  3599  3616    1
  7340  3601  3607    1
  7341  3603  3627    1
  7342  3603  3630    1
  7343  3604  3622    1
  7344  3604  3628    1
  7345  3606  3624    1
  7346  3606  3629    1
  7347  3607  3619   un
  7348  3607  3626   un
  7349  3607  3670    1
  7350  3607  3693    1
  7351  3608  3655    1
  7352  3608  3667    1
  7353  3608  3671    1
  7354  3608  3678    1
  7355  3608  3690    1
  7356  3608  3694    1
  7357  3608  6338   un
  7358  3608  6513    1
  7359  3608  6532    1
  7360  3608  6611   un
  7361  3608  6629   un
  7362  3608  6653   un
  7363  3609  3614   un
  7364  3609  3628   un
  7365  3609  3668    1
  7366  3609  3691    1
  7367  3610  3618   un
  7368  3610  3629   un
  7369  3610  3656    1
  7370  3610  3666    1
  7371  3610  3679    1
  7372  3610  3689    1
  7373  3610  6632   un
  7374  3610  6674   un
  7375  3610  6877   un
  7376  3610  6892   un
  7377  3610  6898   un
  7378  3610  6920    1
  7379  3610  6925    1
  7380  3610  6938    1
  7381  3610  6943    1
  7382  3611  3617   un
  7383  3611  3623   un
  7384  3611  3657    1
  7385  3611  3669    1
  7386  3611  3674    1
  7387  3611  3680    1
  7388  3611  3692    1
  7389  3611  3697    1
  7390  3612  3675    1
  7391  3612  3698    1
  7392  3612  5876    1
  7393  3612  5892    1
  7394  3612  6613   un
  7395  3612  6633   un
  7396  3612  6655   un
  7397  3613  3620   un
  7398  3613  3630   un
  7399  3613  3663    1
  7400  3613  3686    1
  7401  3613  6634   un
  7402  3613  6847    1
  7403  3613  6867    1
  7404  3613  6873   un
  7405  3613  6893   un
  7406  3613  6899   un
  7407  3613  6921    1
  7408  3613  6939    1
  7409  3614  3622   un
  7410  3614  3659    1
  7411  3614  3668    1
  7412  3614  3682    1
  7413  3614  3691    1
  7414  3615  3660    1
  7415  3615  3664    1
  7416  3615  3672    1
  7417  3615  3683    1
  7418  3615  3687    1
  7419  3615  3695    1
  7420  3616  3673    1
  7421  3616  3696    1
  7422  3617  3623   un
  7423  3617  3625   un
  7424  3617  3674    1
  7425  3617  3697    1
  7426  3618  3624   un
  7427  3618  3666    1
  7428  3618  3689    1
  7429  3618  6877   un
  7430  3618  6925    1
  7431  3618  6943    1
  7432  3619  3621   un
  7433  3619  3626   un
  7434  3619  3662    1
  7435  3619  3670    1
  7436  3619  3685    1
  7437  3619  3693    1
  7438  3620  3627   un
  7439  3620  3661    1
  7440  3620  3663    1
  7441  3620  3684    1
  7442  3620  3686    1
  7443  3620  6873   un
  7444  3620  6921    1
  7445  3620  6939    1
  7446  3621  3626   un
  7447  3621  3658    1
  7448  3621  3662    1
  7449  3621  3676    1
  7450  3621  3681    1
  7451  3621  3685    1
  7452  3621  3699    1
  7453  3622  3628   un
  7454  3622  3659    1
  7455  3622  3682    1
  7456  3623  3625   un
  7457  3623  3657    1
  7458  3623  3677    1
  7459  3623  3680    1
  7460  3623  3700    1
  7461  3624  3629   un
  7462  3624  6877   un
  7463  3624  6911    1
  7464  3624  6929    1
  7465  3625  3677    1
  7466  3625  3700    1
  7467  3626  3676    1
  7468  3626  3699    1
  7469  3627  3630   un
  7470  3627  3661    1
  7471  3627  3684    1
  7472  3627  6833    1
  7473  3627  6853    1
  7474  3627  6873   un
  7475  3629  3656    1
  7476  3629  3679    1
  7477  3629  6650   un
  7478  3629  6877   un
  7479  3629  6908   un
  7480  3629  6911    1
  7481  3629  6920    1
  7482  3629  6929    1
  7483  3629  6938    1
  7484  3630  6652   un
  7485  3630  6688   un
  7486  3630  6833    1
  7487  3630  6847    1
  7488  3630  6853    1
  7489  3630  6867    1
  7490  3630  6873   un
  7491  3635  6770   un
  7492  3636  6772   un
  7493  3643  6765   un
  7494  3644  6766   un
  7495  3651  6692   un
  7496  3652  6689   un
  7497  3655  3678    1
  7498  3656  3679    1
  7499  3657  3680    1
  7500  3658  3681    1
  7501  3659  3682    1
  7502  3660  3683    1
  7503  3661  3684    1
  7504  3662  3685    1
  7505  3663  3686    1
  7506  3664  3687    1
  7507  3665  3688    1
  7508  3666  3689    1
  7509  3667  3690    1
  7510  3668  3691    1
  7511  3669  3692    1
  7512  3670  3693    1
  7513  3671  3694    1
  7514  3672  3695    1
  7515  3673  3696    1
  7516  3674  3697    1
  7517  3675  3698    1
  7518  3676  3699    1
  7519  3677  3700    1
  7520  3701  3716   un
  7521  3701  3742   un
  7522  3701  3968    1
  7523  3701  3994    1
  7524  3701  4015   un
  7525  3701  4018   un
  7526  3701  4032   un
  7527  3701  4037   un
  7528  3701  4047   un
  7529  3701  4058   un
  7530  3701  4068    1
  7531  3701  4081    1
  7532  3701  4087    1
  7533  3701  4094    1
  7534  3701  4107    1
  7535  3701  4113    1
  7536  3702  3703   un
  7537  3702  3707   un
  7538  3702  3715   un
  7539  3702  3718   un
  7540  3702  3721   un
  7541  3702  3743   un
  7542  3702  3767   un
  7543  3702  3789   un
  7544  3702  3954    1
  7545  3702  3967    1
  7546  3702  3971    1
  7547  3702  3974    1
  7548  3702  3980    1
  7549  3702  3993    1
  7550  3702  3997    1
  7551  3702  4000    1
  7552  3703  3707   un
  7553  3703  3711   un
  7554  3703  3718   un
  7555  3703  3725   un
  7556  3703  3747   un
  7557  3703  3771   un
  7558  3703  3793   un
  7559  3703  3957    1
  7560  3703  3965    1
  7561  3703  3971    1
  7562  3703  3974    1
  7563  3703  3983    1
  7564  3703  3991    1
  7565  3703  3997    1
  7566  3703  4000    1
  7567  3704  3710   un
  7568  3704  3748   un
  7569  3704  3794   un
  7570  3704  3958    1
  7571  3704  3969    1
  7572  3704  3984    1
  7573  3704  3995    1
  7574  3704  4007   un
  7575  3704  4017   un
  7576  3704  4031   un
  7577  3704  4040   un
  7578  3704  4050   un
  7579  3704  4076    1
  7580  3704  4086    1
  7581  3704  4102    1
  7582  3704  4112    1
  7583  3705  3727   un
  7584  3705  3749   un
  7585  3705  3773   un
  7586  3705  3964    1
  7587  3705  3973    1
  7588  3705  3990    1
  7589  3705  3999    1
  7590  3705  4006   un
  7591  3705  4014   un
  7592  3705  4022   un
  7593  3705  4028   un
  7594  3705  4059   un
  7595  3705  4071    1
  7596  3705  4080    1
  7597  3705  4097    1
  7598  3705  4106    1
  7599  3706  3712   un
  7600  3706  3750   un
  7601  3706  3966    1
  7602  3706  3992    1
  7603  3706  4009   un
  7604  3706  4011   un
  7605  3706  4026   un
  7606  3706  4041   un
  7607  3706  4051   un
  7608  3706  4060   un
  7609  3706  4073    1
  7610  3706  4077    1
  7611  3706  4088    1
  7612  3706  4099    1
  7613  3706  4103    1
  7614  3706  4114    1
  7615  3707  3711   un
  7616  3707  3715   un
  7617  3707  3728   un
  7618  3707  3751   un
  7619  3707  3774   un
  7620  3707  3797   un
  7621  3707  3961    1
  7622  3707  3965    1
  7623  3707  3967    1
  7624  3707  3974    1
  7625  3707  3987    1
  7626  3707  3991    1
  7627  3707  3993    1
  7628  3707  4000    1
  7629  3708  3714   un
  7630  3708  3752   un
  7631  3708  3798   un
  7632  3708  3962    1
  7633  3708  3963    1
  7634  3708  3988    1
  7635  3708  3989    1
  7636  3708  4005   un
  7637  3708  4012   un
  7638  3708  4021   un
  7639  3708  4042   un
  7640  3708  4052   un
  7641  3708  4079    1
  7642  3708  4085    1
  7643  3708  4105    1
  7644  3708  4111    1
  7645  3709  3729   un
  7646  3709  3753   un
  7647  3709  3775   un
  7648  3709  3956    1
  7649  3709  3975    1
  7650  3709  3982    1
  7651  3709  4001    1
  7652  3709  4013   un
  7653  3709  4020   un
  7654  3709  4027   un
  7655  3709  4036   un
  7656  3709  4061   un
  7657  3709  4074    1
  7658  3709  4075    1
  7659  3709  4100    1
  7660  3709  4101    1
  7661  3710  3754   un
  7662  3710  3958    1
  7663  3710  3984    1
  7664  3710  4017   un
  7665  3710  4029   un
  7666  3710  4031   un
  7667  3710  4043   un
  7668  3710  4053   un
  7669  3710  4062   un
  7670  3710  4072    1
  7671  3710  4076    1
  7672  3710  4090    1
  7673  3710  4098    1
  7674  3710  4102    1
  7675  3710  4116    1
  7676  3711  3715   un
  7677  3711  3718   un
  7678  3711  3731   un
  7679  3711  3755   un
  7680  3711  3777   un
  7681  3711  3801   un
  7682  3711  3957    1
  7683  3711  3961    1
  7684  3711  3965    1
  7685  3711  3977    1
  7686  3711  3983    1
  7687  3711  3987    1
  7688  3711  3991    1
  7689  3711  4003    1
  7690  3712  3756   un
  7691  3712  3802   un
  7692  3712  3955    1
  7693  3712  3966    1
  7694  3712  3981    1
  7695  3712  3992    1
  7696  3712  4011   un
  7697  3712  4026   un
  7698  3712  4033   un
  7699  3712  4044   un
  7700  3712  4054   un
  7701  3712  4073    1
  7702  3712  4092    1
  7703  3712  4099    1
  7704  3712  4118    1
  7705  3713  3733   un
  7706  3713  3757   un
  7707  3713  3779   un
  7708  3713  3960    1
  7709  3713  3978    1
  7710  3713  3986    1
  7711  3713  4004    1
  7712  3713  4010   un
  7713  3713  4019   un
  7714  3713  4025   un
  7715  3713  4034   un
  7716  3713  4063   un
  7717  3713  4069    1
  7718  3713  4078    1
  7719  3713  4095    1
  7720  3713  4104    1
  7721  3714  3758   un
  7722  3714  3962    1
  7723  3714  3988    1
  7724  3714  4005   un
  7725  3714  4021   un
  7726  3714  4035   un
  7727  3714  4045   un
  7728  3714  4055   un
  7729  3714  4064   un
  7730  3714  4067    1
  7731  3714  4079    1
  7732  3714  4089    1
  7733  3714  4093    1
  7734  3714  4105    1
  7735  3714  4115    1
  7736  3715  3718   un
  7737  3715  3735   un
  7738  3715  3759   un
  7739  3715  3781   un
  7740  3715  3803   un
  7741  3715  3954    1
  7742  3715  3961    1
  7743  3715  3967    1
  7744  3715  3977    1
  7745  3715  3980    1
  7746  3715  3987    1
  7747  3715  3993    1
  7748  3715  4003    1
  7749  3716  3760   un
  7750  3716  3804   un
  7751  3716  3959    1
  7752  3716  3968    1
  7753  3716  3985    1
  7754  3716  3994    1
  7755  3716  4018   un
  7756  3716  4023   un
  7757  3716  4032   un
  7758  3716  4046   un
  7759  3716  4056   un
  7760  3716  4068    1
  7761  3716  4091    1
  7762  3716  4094    1
  7763  3716  4117    1
  7764  3717  3737   un
  7765  3717  3761   un
  7766  3717  3783   un
  7767  3717  3953    1
  7768  3717  3976    1
  7769  3717  3979    1
  7770  3717  4002    1
  7771  3717  4008   un
  7772  3717  4016   un
  7773  3717  4024   un
  7774  3717  4030   un
  7775  3717  4065   un
  7776  3717  4070    1
  7777  3717  4082    1
  7778  3717  4096    1
  7779  3717  4108    1
  7780  3718  3739   un
  7781  3718  3763   un
  7782  3718  3785   un
  7783  3718  3807   un
  7784  3718  3954    1
  7785  3718  3957    1
  7786  3718  3971    1
  7787  3718  3977    1
  7788  3718  3980    1
  7789  3718  3983    1
  7790  3718  3997    1
  7791  3718  4003    1
  7792  3719  3881   un
  7793  3720  3882   un
  7794  3720  4006   un
  7795  3721  3883   un
  7796  3722  3884   un
  7797  3723  3885   un
  7798  3724  3886   un
  7799  3725  3887   un
  7800  3726  3888   un
  7801  3726  4014   un
  7802  3727  3889   un
  7803  3728  3891   un
  7804  3729  3893   un
  7805  3730  3894   un
  7806  3730  4024   un
  7807  3731  3895   un
  7808  3732  3896   un
  7809  3732  4025   un
  7810  3733  3897   un
  7811  3734  3898   un
  7812  3734  4027   un
  7813  3735  3899   un
  7814  3736  3900   un
  7815  3736  4030   un
  7816  3737  3901   un
  7817  3738  3902   un
  7818  3738  4034   un
  7819  3739  3903   un
  7820  3740  3904   un
  7821  3740  4036   un
  7822  3741  3809   un
  7823  3742  3810   un
  7824  3743  3811   un
  7825  3744  3812   un
  7826  3745  3813   un
  7827  3746  3814   un
  7828  3747  3815   un
  7829  3748  3816   un
  7830  3749  3817   un
  7831  3750  3818   un
  7832  3751  3819   un
  7833  3752  3820   un
  7834  3753  3821   un
  7835  3754  3822   un
  7836  3755  3823   un
  7837  3756  3824   un
  7838  3757  3825   un
  7839  3758  3826   un
  7840  3759  3827   un
  7841  3760  3828   un
  7842  3761  3829   un
  7843  3762  3830   un
  7844  3763  3831   un
  7845  3764  3832   un
  7846  3765  3892   un
  7847  3766  3889   un
  7848  3766  4006   un
  7849  3767  3891   un
  7850  3768  3890   un
  7851  3769  3884   un
  7852  3770  3881   un
  7853  3771  3883   un
  7854  3772  3882   un
  7855  3772  4014   un
  7856  3773  3888   un
  7857  3774  3887   un
  7858  3775  3904   un
  7859  3776  3901   un
  7860  3776  4024   un
  7861  3777  3903   un
  7862  3778  3902   un
  7863  3778  4025   un
  7864  3779  3896   un
  7865  3780  3893   un
  7866  3780  4027   un
  7867  3781  3895   un
  7868  3782  3894   un
  7869  3782  4030   un
  7870  3783  3900   un
  7871  3784  3897   un
  7872  3784  4034   un
  7873  3785  3899   un
  7874  3786  3898   un
  7875  3786  4036   un
  7876  3787  3832   un
  7877  3788  3829   un
  7878  3788  4008   un
  7879  3789  3831   un
  7880  3790  3830   un
  7881  3791  3824   un
  7882  3791  4011   un
  7883  3792  3821   un
  7884  3792  4013   un
  7885  3793  3823   un
  7886  3794  3822   un
  7887  3795  3828   un
  7888  3795  4018   un
  7889  3796  3825   un
  7890  3796  4019   un
  7891  3797  3827   un
  7892  3798  3826   un
  7893  3799  3820   un
  7894  3799  4021   un
  7895  3800  3817   un
  7896  3800  4022   un
  7897  3801  3819   un
  7898  3802  3818   un
  7899  3803  3811   un
  7900  3804  3810   un
  7901  3805  3816   un
  7902  3805  4031   un
  7903  3806  3813   un
  7904  3807  3815   un
  7905  3808  3814   un
  7906  3809  3833   un
  7907  3810  3834   un
  7908  3811  3835   un
  7909  3812  3836   un
  7910  3813  3837   un
  7911  3814  3838   un
  7912  3815  3839   un
  7913  3816  3840   un
  7914  3817  3841   un
  7915  3818  3842   un
  7916  3819  3843   un
  7917  3820  3844   un
  7918  3821  3845   un
  7919  3822  3846   un
  7920  3823  3847   un
  7921  3824  3848   un
  7922  3825  3849   un
  7923  3826  3850   un
  7924  3827  3851   un
  7925  3828  3852   un
  7926  3829  3853   un
  7927  3830  3854   un
  7928  3831  3855   un
  7929  3832  3856   un
  7930  3833  3834   un
  7931  3833  3857    1
  7932  3834  3858    1
  7933  3835  3836   un
  7934  3835  3859    1
  7935  3836  3860    1
  7936  3837  3838   un
  7937  3837  3861    1
  7938  3838  3862    1
  7939  3839  3840   un
  7940  3839  3863    1
  7941  3840  3864    1
  7942  3841  3842   un
  7943  3841  3865    1
  7944  3842  3866    1
  7945  3843  3844   un
  7946  3843  3867    1
  7947  3844  3868    1
  7948  3845  3846   un
  7949  3845  3869    1
  7950  3846  3870    1
  7951  3847  3848   un
  7952  3847  3871    1
  7953  3848  3872    1
  7954  3849  3850   un
  7955  3849  3873    1
  7956  3850  3874    1
  7957  3851  3852   un
  7958  3851  3875    1
  7959  3852  3876    1
  7960  3853  3854   un
  7961  3853  3877    1
  7962  3854  3878    1
  7963  3855  3856   un
  7964  3855  3879    1
  7965  3856  3880    1
  7966  3881  3905   un
  7967  3882  3906   un
  7968  3883  3907   un
  7969  3884  3908   un
  7970  3885  3909   un
  7971  3886  3910   un
  7972  3887  3911   un
  7973  3888  3912   un
  7974  3889  3913   un
  7975  3890  3914   un
  7976  3891  3915   un
  7977  3892  3916   un
  7978  3893  3917   un
  7979  3894  3918   un
  7980  3895  3919   un
  7981  3896  3920   un
  7982  3897  3921   un
  7983  3898  3922   un
  7984  3899  3923   un
  7985  3900  3924   un
  7986  3901  3925   un
  7987  3902  3926   un
  7988  3903  3927   un
  7989  3904  3928   un
  7990  3905  3906   un
  7991  3905  3929    1
  7992  3906  3930    1
  7993  3907  3908   un
  7994  3907  3931    1
  7995  3908  3932    1
  7996  3909  3910   un
  7997  3909  3933    1
  7998  3910  3934    1
  7999  3911  3912   un
  8000  3911  3935    1
  8001  3912  3936    1
  8002  3913  3914   un
  8003  3913  3937    1
  8004  3914  3938    1
  8005  3915  3916   un
  8006  3915  3939    1
  8007  3916  3940    1
  8008  3917  3918   un
  8009  3917  3941    1
  8010  3918  3942    1
  8011  3919  3920   un
  8012  3919  3943    1
  8013  3920  3944    1
  8014  3921  3922   un
  8015  3921  3945    1
  8016  3922  3946    1
  8017  3923  3924   un
  8018  3923  3947    1
  8019  3924  3948    1
  8020  3925  3926   un
  8021  3925  3949    1
  8022  3926  3950    1
  8023  3927  3928   un
  8024  3927  3951    1
  8025  3928  3952    1
  8026  3953  3979    1
  8027  3953  4008    1
  8028  3953  4030    1
  8029  3954  3980    1
  8030  3955  3981    1
  8031  3955  4011    1
  8032  3955  4033    1
  8033  3956  3982    1
  8034  3956  4013    1
  8035  3956  4036    1
  8036  3957  3983    1
  8037  3958  3984    1
  8038  3958  4031    1
  8039  3959  3985    1
  8040  3959  4018    1
  8041  3959  4023    1
  8042  3960  3986    1
  8043  3960  4019    1
  8044  3960  4025    1
  8045  3961  3987    1
  8046  3962  3988    1
  8047  3962  4021    1
  8048  3963  3989    1
  8049  3963  4012    1
  8050  3963  4021    1
  8051  3964  3990    1
  8052  3964  4014    1
  8053  3964  4022    1
  8054  3965  3991    1
  8055  3966  3992    1
  8056  3966  4011    1
  8057  3967  3993    1
  8058  3968  3994    1
  8059  3968  4018    1
  8060  3969  3995    1
  8061  3969  4007    1
  8062  3969  4031    1
  8063  3970  3996    1
  8064  3971  3997    1
  8065  3972  3998    1
  8066  3973  3999    1
  8067  3973  4006    1
  8068  3973  4014    1
  8069  3974  4000    1
  8070  3975  4001    1
  8071  3975  4027    1
  8072  3975  4036    1
  8073  3976  4002    1
  8074  3976  4024    1
  8075  3976  4030    1
  8076  3977  4003    1
  8077  3978  4004    1
  8078  3978  4025    1
  8079  3978  4034    1
  8080  3979  4008    1
  8081  3979  4030    1
  8082  3981  4011    1
  8083  3981  4033    1
  8084  3982  4013    1
  8085  3982  4036    1
  8086  3984  4031    1
  8087  3985  4018    1
  8088  3985  4023    1
  8089  3986  4019    1
  8090  3986  4025    1
  8091  3988  4021    1
  8092  3989  4012    1
  8093  3989  4021    1
  8094  3990  4014    1
  8095  3990  4022    1
  8096  3992  4011    1
  8097  3994  4018    1
  8098  3995  4007    1
  8099  3995  4031    1
  8100  3999  4006    1
  8101  3999  4014    1
  8102  4001  4027    1
  8103  4001  4036    1
  8104  4002  4024    1
  8105  4002  4030    1
  8106  4004  4025    1
  8107  4004  4034    1
  8108  4005  4012   un
  8109  4005  4035   un
  8110  4005  4067    1
  8111  4005  4079    1
  8112  4005  4085    1
  8113  4005  4093    1
  8114  4005  4105    1
  8115  4005  4111    1
  8116  4005  6963   un
  8117  4005  6985   un
  8118  4005  7009   un
  8119  4005  7301   un
  8120  4005  7328    1
  8121  4005  7354    1
  8122  4006  4014   un
  8123  4006  4028   un
  8124  4006  4080    1
  8125  4006  4106    1
  8126  4007  4017   un
  8127  4007  4029   un
  8128  4007  4031   un
  8129  4007  4086    1
  8130  4007  4112    1
  8131  4007  4133   un
  8132  4007  4177   un
  8133  4007  4461    1
  8134  4007  4481    1
  8135  4008  4016   un
  8136  4008  4030   un
  8137  4008  4082    1
  8138  4008  4108    1
  8139  4008  4153   un
  8140  4008  4372    1
  8141  4008  4394    1
  8142  4008  4413   un
  8143  4008  4426   un
  8144  4008  4434   un
  8145  4008  4466    1
  8146  4008  4486    1
  8147  4009  4011   un
  8148  4009  4026   un
  8149  4009  4033   un
  8150  4009  4077    1
  8151  4009  4088    1
  8152  4009  4103    1
  8153  4009  4114    1
  8154  4009  6966   un
  8155  4009  7012   un
  8156  4009  7214    1
  8157  4009  7240    1
  8158  4010  4019   un
  8159  4010  4034   un
  8160  4010  4069    1
  8161  4010  4078    1
  8162  4010  4095    1
  8163  4010  4104    1
  8164  4010  5154   un
  8165  4010  5211    1
  8166  4010  5229    1
  8167  4010  6988   un
  8168  4010  7034   un
  8169  4010  7282   un
  8170  4010  7292   un
  8171  4010  7327    1
  8172  4010  7353    1
  8173  4011  4033   un
  8174  4011  4088    1
  8175  4011  4114    1
  8176  4011  6967   un
  8177  4011  6989   un
  8178  4011  7013   un
  8179  4011  7214    1
  8180  4011  7240    1
  8181  4012  4021   un
  8182  4012  4035   un
  8183  4012  4085    1
  8184  4012  4111    1
  8185  4012  6968   un
  8186  4012  7014   un
  8187  4012  7328    1
  8188  4012  7354    1
  8189  4013  4020   un
  8190  4013  4036   un
  8191  4013  4075    1
  8192  4013  4101    1
  8193  4013  4404   un
  8194  4013  4464    1
  8195  4013  4484    1
  8196  4013  6990   un
  8197  4013  7216    1
  8198  4013  7242    1
  8199  4013  7283   un
  8200  4013  7293   un
  8201  4014  4022   un
  8202  4015  4018   un
  8203  4015  4023   un
  8204  4015  4032   un
  8205  4015  4081    1
  8206  4015  4087    1
  8207  4015  4107    1
  8208  4015  4113    1
  8209  4015  4884   un
  8210  4015  4928   un
  8211  4015  5117    1
  8212  4015  5139    1
  8213  4016  4024   un
  8214  4016  4070    1
  8215  4016  4082    1
  8216  4016  4096    1
  8217  4016  4108    1
  8218  4016  4413   un
  8219  4016  4466    1
  8220  4016  4486    1
  8221  4016  4906   un
  8222  4016  4950   un
  8223  4016  5175   un
  8224  4016  5183   un
  8225  4016  5202    1
  8226  4016  5220    1
  8227  4017  4029   un
  8228  4017  4072    1
  8229  4017  4076    1
  8230  4017  4086    1
  8231  4017  4098    1
  8232  4017  4102    1
  8233  4017  4112    1
  8234  4017  4138   un
  8235  4017  4160   un
  8236  4017  4182   un
  8237  4017  4442   un
  8238  4017  4461    1
  8239  4017  4481    1
  8240  4018  4023   un
  8241  4018  4087    1
  8242  4018  4113    1
  8243  4018  4885   un
  8244  4018  4907   un
  8245  4018  4929   un
  8246  4018  5117    1
  8247  4018  5139    1
  8248  4019  4025   un
  8249  4019  4078    1
  8250  4019  4104    1
  8251  4019  4908   un
  8252  4019  5119    1
  8253  4019  5141    1
  8254  4019  5154   un
  8255  4019  5176   un
  8256  4019  5184   un
  8257  4019  5211    1
  8258  4019  5229    1
  8259  4020  4027   un
  8260  4020  4074    1
  8261  4020  4075    1
  8262  4020  4100    1
  8263  4020  4101    1
  8264  4020  4163   un
  8265  4020  4207   un
  8266  4020  4404   un
  8267  4020  4431   un
  8268  4020  4439   un
  8269  4020  4460    1
  8270  4020  4464    1
  8271  4020  4480    1
  8272  4020  4484    1
  8273  4021  4035   un
  8274  4021  4089    1
  8275  4021  4115    1
  8276  4022  4028   un
  8277  4022  4071    1
  8278  4022  4097    1
  8279  4023  4032   un
  8280  4023  4091    1
  8281  4023  4117    1
  8282  4023  4956   un
  8283  4023  5117    1
  8284  4023  5139    1
  8285  4024  4030   un
  8286  4024  4070    1
  8287  4024  4096    1
  8288  4024  4366    1
  8289  4024  4388    1
  8290  4024  4413   un
  8291  4024  4912   un
  8292  4024  5191   un
  8293  4024  5202    1
  8294  4024  5220    1
  8295  4025  4034   un
  8296  4025  4914   un
  8297  4025  4958   un
  8298  4025  5109    1
  8299  4025  5119    1
  8300  4025  5131    1
  8301  4025  5141    1
  8302  4025  5154   un
  8303  4026  4033   un
  8304  4026  4073    1
  8305  4026  4077    1
  8306  4026  4092    1
  8307  4026  4099    1
  8308  4026  4103    1
  8309  4026  4118    1
  8310  4027  4036   un
  8311  4027  4074    1
  8312  4027  4100    1
  8313  4027  4169   un
  8314  4027  4404   un
  8315  4027  4447   un
  8316  4027  4450    1
  8317  4027  4460    1
  8318  4027  4470    1
  8319  4027  4480    1
  8320  4028  4071    1
  8321  4028  4080    1
  8322  4028  4097    1
  8323  4028  4106    1
  8324  4029  4031   un
  8325  4029  4072    1
  8326  4029  4090    1
  8327  4029  4098    1
  8328  4029  4116    1
  8329  4029  4461    1
  8330  4029  4481    1
  8331  4030  4171   un
  8332  4030  4211   un
  8333  4030  4366    1
  8334  4030  4372    1
  8335  4030  4388    1
  8336  4030  4394    1
  8337  4030  4413   un
  8338  4031  4090    1
  8339  4031  4116    1
  8340  4032  4068    1
  8341  4032  4081    1
  8342  4032  4091    1
  8343  4032  4094    1
  8344  4032  4107    1
  8345  4032  4117    1
  8346  4033  4092    1
  8347  4033  4118    1
  8348  4033  7050   un
  8349  4033  7214    1
  8350  4033  7240    1
  8351  4034  4069    1
  8352  4034  4095    1
  8353  4034  5109    1
  8354  4034  5131    1
  8355  4034  5154   un
  8356  4034  7006   un
  8357  4034  7310   un
  8358  4034  7327    1
  8359  4034  7353    1
  8360  4035  4067    1
  8361  4035  4089    1
  8362  4035  4093    1
  8363  4035  4115    1
  8364  4035  7328    1
  8365  4035  7354    1
  8366  4036  4404   un
  8367  4036  4450    1
  8368  4036  4470    1
  8369  4036  7008   un
  8370  4036  7052   un
  8371  4036  7216    1
  8372  4036  7242    1
  8373  4037  5036   un
  8374  4038  5038   un
  8375  4039  4293   un
  8376  4040  4295   un
  8377  4041  7134   un
  8378  4042  7136   un
  8379  4047  5043   un
  8380  4048  5044   un
  8381  4049  4288   un
  8382  4050  4289   un
  8383  4051  7129   un
  8384  4052  7130   un
  8385  4061  4227   un
  8386  4062  4224   un
  8387  4063  7056   un
  8388  4064  7053   un
  8389  4065  4970   un
  8390  4066  4967   un
  8391  4067  4093    1
  8392  4068  4094    1
  8393  4069  4095    1
  8394  4070  4096    1
  8395  4071  4097    1
  8396  4072  4098    1
  8397  4073  4099    1
  8398  4074  4100    1
  8399  4075  4101    1
  8400  4076  4102    1
  8401  4077  4103    1
  8402  4078  4104    1
  8403  4079  4105    1
  8404  4080  4106    1
  8405  4081  4107    1
  8406  4082  4108    1
  8407  4083  4109    1
  8408  4084  4110    1
  8409  4085  4111    1
  8410  4086  4112    1
  8411  4087  4113    1
  8412  4088  4114    1
  8413  4089  4115    1
  8414  4090  4116    1
  8415  4091  4117    1
  8416  4092  4118    1
  8417  4119  4120   un
  8418  4119  4123   un
  8419  4119  4129   un
  8420  4119  4131   un
  8421  4119  4134   un
  8422  4119  4154   un
  8423  4119  4178   un
  8424  4119  4198   un
  8425  4119  4361    1
  8426  4119  4371    1
  8427  4119  4375    1
  8428  4119  4377    1
  8429  4119  4383    1
  8430  4119  4393    1
  8431  4119  4397    1
  8432  4119  4399    1
  8433  4120  4123   un
  8434  4120  4126   un
  8435  4120  4131   un
  8436  4120  4137   un
  8437  4120  4158   un
  8438  4120  4181   un
  8439  4120  4202   un
  8440  4120  4364    1
  8441  4120  4369    1
  8442  4120  4375    1
  8443  4120  4377    1
  8444  4120  4386    1
  8445  4120  4391    1
  8446  4120  4397    1
  8447  4120  4399    1
  8448  4121  4125   un
  8449  4121  4159   un
  8450  4121  4203   un
  8451  4121  4365    1
  8452  4121  4373    1
  8453  4121  4387    1
  8454  4121  4395    1
  8455  4121  4405   un
  8456  4121  4412   un
  8457  4121  4422   un
  8458  4121  4429   un
  8459  4121  4437   un
  8460  4121  4457    1
  8461  4121  4465    1
  8462  4121  4477    1
  8463  4121  4485    1
  8464  4122  4127   un
  8465  4122  4161   un
  8466  4122  4370    1
  8467  4122  4392    1
  8468  4122  4407   un
  8469  4122  4409   un
  8470  4122  4418   un
  8471  4122  4430   un
  8472  4122  4438   un
  8473  4122  4443   un
  8474  4122  4454    1
  8475  4122  4458    1
  8476  4122  4467    1
  8477  4122  4474    1
  8478  4122  4478    1
  8479  4122  4487    1
  8480  4123  4126   un
  8481  4123  4129   un
  8482  4123  4139   un
  8483  4123  4162   un
  8484  4123  4183   un
  8485  4123  4206   un
  8486  4123  4368    1
  8487  4123  4369    1
  8488  4123  4371    1
  8489  4123  4377    1
  8490  4123  4390    1
  8491  4123  4391    1
  8492  4123  4393    1
  8493  4123  4399    1
  8494  4124  4140   un
  8495  4124  4164   un
  8496  4124  4184   un
  8497  4124  4363    1
  8498  4124  4378    1
  8499  4124  4385    1
  8500  4124  4400    1
  8501  4124  4410   un
  8502  4124  4415   un
  8503  4124  4419   un
  8504  4124  4425   un
  8505  4124  4444   un
  8506  4124  4455    1
  8507  4124  4456    1
  8508  4124  4475    1
  8509  4124  4476    1
  8510  4125  4165   un
  8511  4125  4365    1
  8512  4125  4387    1
  8513  4125  4412   un
  8514  4125  4420   un
  8515  4125  4422   un
  8516  4125  4432   un
  8517  4125  4440   un
  8518  4125  4445   un
  8519  4125  4453    1
  8520  4125  4457    1
  8521  4125  4468    1
  8522  4125  4473    1
  8523  4125  4477    1
  8524  4125  4488    1
  8525  4126  4129   un
  8526  4126  4131   un
  8527  4126  4142   un
  8528  4126  4166   un
  8529  4126  4186   un
  8530  4126  4208   un
  8531  4126  4364    1
  8532  4126  4368    1
  8533  4126  4369    1
  8534  4126  4380    1
  8535  4126  4386    1
  8536  4126  4390    1
  8537  4126  4391    1
  8538  4126  4402    1
  8539  4127  4167   un
  8540  4127  4209   un
  8541  4127  4362    1
  8542  4127  4370    1
  8543  4127  4384    1
  8544  4127  4392    1
  8545  4127  4409   un
  8546  4127  4418   un
  8547  4127  4423   un
  8548  4127  4433   un
  8549  4127  4441   un
  8550  4127  4454    1
  8551  4127  4469    1
  8552  4127  4474    1
  8553  4127  4489    1
  8554  4128  4144   un
  8555  4128  4168   un
  8556  4128  4188   un
  8557  4128  4367    1
  8558  4128  4381    1
  8559  4128  4389    1
  8560  4128  4403    1
  8561  4128  4408   un
  8562  4128  4414   un
  8563  4128  4417   un
  8564  4128  4424   un
  8565  4128  4446   un
  8566  4128  4451    1
  8567  4128  4459    1
  8568  4128  4471    1
  8569  4128  4479    1
  8570  4129  4131   un
  8571  4129  4146   un
  8572  4129  4170   un
  8573  4129  4190   un
  8574  4129  4210   un
  8575  4129  4361    1
  8576  4129  4368    1
  8577  4129  4371    1
  8578  4129  4380    1
  8579  4129  4383    1
  8580  4129  4390    1
  8581  4129  4393    1
  8582  4129  4402    1
  8583  4130  4148   un
  8584  4130  4172   un
  8585  4130  4192   un
  8586  4130  4360    1
  8587  4130  4379    1
  8588  4130  4382    1
  8589  4130  4401    1
  8590  4130  4406   un
  8591  4130  4411   un
  8592  4130  4416   un
  8593  4130  4421   un
  8594  4130  4448   un
  8595  4130  4452    1
  8596  4130  4462    1
  8597  4130  4472    1
  8598  4130  4482    1
  8599  4131  4150   un
  8600  4131  4174   un
  8601  4131  4194   un
  8602  4131  4214   un
  8603  4131  4361    1
  8604  4131  4364    1
  8605  4131  4375    1
  8606  4131  4380    1
  8607  4131  4383    1
  8608  4131  4386    1
  8609  4131  4397    1
  8610  4131  4402    1
  8611  4132  4288   un
  8612  4133  4289   un
  8613  4134  4290   un
  8614  4135  4291   un
  8615  4136  4292   un
  8616  4137  4294   un
  8617  4138  4296   un
  8618  4139  4298   un
  8619  4140  4300   un
  8620  4141  4301   un
  8621  4141  4416   un
  8622  4142  4302   un
  8623  4143  4303   un
  8624  4143  4417   un
  8625  4144  4304   un
  8626  4145  4305   un
  8627  4145  4419   un
  8628  4146  4306   un
  8629  4147  4307   un
  8630  4147  4421   un
  8631  4148  4308   un
  8632  4149  4309   un
  8633  4149  4424   un
  8634  4150  4310   un
  8635  4151  4311   un
  8636  4151  4425   un
  8637  4152  4216   un
  8638  4153  4217   un
  8639  4154  4218   un
  8640  4155  4219   un
  8641  4156  4220   un
  8642  4157  4221   un
  8643  4158  4222   un
  8644  4159  4223   un
  8645  4160  4224   un
  8646  4161  4225   un
  8647  4162  4226   un
  8648  4163  4227   un
  8649  4164  4228   un
  8650  4165  4229   un
  8651  4166  4230   un
  8652  4167  4231   un
  8653  4168  4232   un
  8654  4169  4233   un
  8655  4170  4234   un
  8656  4171  4235   un
  8657  4172  4236   un
  8658  4173  4237   un
  8659  4174  4238   un
  8660  4175  4239   un
  8661  4176  4299   un
  8662  4177  4296   un
  8663  4178  4298   un
  8664  4179  4297   un
  8665  4180  4291   un
  8666  4181  4290   un
  8667  4182  4295   un
  8668  4183  4294   un
  8669  4184  4311   un
  8670  4185  4308   un
  8671  4185  4416   un
  8672  4186  4310   un
  8673  4187  4309   un
  8674  4187  4417   un
  8675  4188  4303   un
  8676  4189  4300   un
  8677  4189  4419   un
  8678  4190  4302   un
  8679  4191  4301   un
  8680  4191  4421   un
  8681  4192  4307   un
  8682  4193  4304   un
  8683  4193  4424   un
  8684  4194  4306   un
  8685  4195  4305   un
  8686  4195  4425   un
  8687  4196  4239   un
  8688  4197  4236   un
  8689  4197  4406   un
  8690  4198  4238   un
  8691  4199  4237   un
  8692  4200  4231   un
  8693  4200  4409   un
  8694  4201  4228   un
  8695  4201  4410   un
  8696  4202  4230   un
  8697  4203  4229   un
  8698  4204  4235   un
  8699  4204  4413   un
  8700  4205  4232   un
  8701  4205  4414   un
  8702  4206  4234   un
  8703  4207  4233   un
  8704  4208  4226   un
  8705  4209  4225   un
  8706  4210  4218   un
  8707  4211  4217   un
  8708  4212  4223   un
  8709  4212  4422   un
  8710  4213  4220   un
  8711  4214  4222   un
  8712  4215  4221   un
  8713  4216  4240   un
  8714  4217  4241   un
  8715  4218  4242   un
  8716  4219  4243   un
  8717  4220  4244   un
  8718  4221  4245   un
  8719  4222  4246   un
  8720  4223  4247   un
  8721  4224  4248   un
  8722  4225  4249   un
  8723  4226  4250   un
  8724  4227  4251   un
  8725  4228  4252   un
  8726  4229  4253   un
  8727  4230  4254   un
  8728  4231  4255   un
  8729  4232  4256   un
  8730  4233  4257   un
  8731  4234  4258   un
  8732  4235  4259   un
  8733  4236  4260   un
  8734  4237  4261   un
  8735  4238  4262   un
  8736  4239  4263   un
  8737  4240  4241   un
  8738  4240  4264    1
  8739  4241  4265    1
  8740  4242  4243   un
  8741  4242  4266    1
  8742  4243  4267    1
  8743  4244  4245   un
  8744  4244  4268    1
  8745  4245  4269    1
  8746  4246  4247   un
  8747  4246  4270    1
  8748  4247  4271    1
  8749  4248  4249   un
  8750  4248  4272    1
  8751  4249  4273    1
  8752  4250  4251   un
  8753  4250  4274    1
  8754  4251  4275    1
  8755  4252  4253   un
  8756  4252  4276    1
  8757  4253  4277    1
  8758  4254  4255   un
  8759  4254  4278    1
  8760  4255  4279    1
  8761  4256  4257   un
  8762  4256  4280    1
  8763  4257  4281    1
  8764  4258  4259   un
  8765  4258  4282    1
  8766  4259  4283    1
  8767  4260  4261   un
  8768  4260  4284    1
  8769  4261  4285    1
  8770  4262  4263   un
  8771  4262  4286    1
  8772  4263  4287    1
  8773  4288  4312   un
  8774  4289  4313   un
  8775  4290  4314   un
  8776  4291  4315   un
  8777  4292  4316   un
  8778  4293  4317   un
  8779  4294  4318   un
  8780  4295  4319   un
  8781  4296  4320   un
  8782  4297  4321   un
  8783  4298  4322   un
  8784  4299  4323   un
  8785  4300  4324   un
  8786  4301  4325   un
  8787  4302  4326   un
  8788  4303  4327   un
  8789  4304  4328   un
  8790  4305  4329   un
  8791  4306  4330   un
  8792  4307  4331   un
  8793  4308  4332   un
  8794  4309  4333   un
  8795  4310  4334   un
  8796  4311  4335   un
  8797  4312  4313   un
  8798  4312  4336    1
  8799  4313  4337    1
  8800  4314  4315   un
  8801  4314  4338    1
  8802  4315  4339    1
  8803  4316  4317   un
  8804  4316  4340    1
  8805  4317  4341    1
  8806  4318  4319   un
  8807  4318  4342    1
  8808  4319  4343    1
  8809  4320  4321   un
  8810  4320  4344    1
  8811  4321  4345    1
  8812  4322  4323   un
  8813  4322  4346    1
  8814  4323  4347    1
  8815  4324  4325   un
  8816  4324  4348    1
  8817  4325  4349    1
  8818  4326  4327   un
  8819  4326  4350    1
  8820  4327  4351    1
  8821  4328  4329   un
  8822  4328  4352    1
  8823  4329  4353    1
  8824  4330  4331   un
  8825  4330  4354    1
  8826  4331  4355    1
  8827  4332  4333   un
  8828  4332  4356    1
  8829  4333  4357    1
  8830  4334  4335   un
  8831  4334  4358    1
  8832  4335  4359    1
  8833  4360  4382    1
  8834  4360  4406    1
  8835  4360  4421    1
  8836  4361  4383    1
  8837  4362  4384    1
  8838  4362  4409    1
  8839  4362  4423    1
  8840  4363  4385    1
  8841  4363  4410    1
  8842  4363  4425    1
  8843  4364  4386    1
  8844  4365  4387    1
  8845  4365  4422    1
  8846  4366  4388    1
  8847  4366  4413    1
  8848  4367  4389    1
  8849  4367  4414    1
  8850  4367  4417    1
  8851  4368  4390    1
  8852  4369  4391    1
  8853  4370  4392    1
  8854  4370  4409    1
  8855  4371  4393    1
  8856  4372  4394    1
  8857  4372  4413    1
  8858  4373  4395    1
  8859  4373  4405    1
  8860  4373  4422    1
  8861  4374  4396    1
  8862  4375  4397    1
  8863  4376  4398    1
  8864  4377  4399    1
  8865  4378  4400    1
  8866  4378  4419    1
  8867  4378  4425    1
  8868  4379  4401    1
  8869  4379  4416    1
  8870  4379  4421    1
  8871  4380  4402    1
  8872  4381  4403    1
  8873  4381  4417    1
  8874  4381  4424    1
  8875  4382  4406    1
  8876  4382  4421    1
  8877  4384  4409    1
  8878  4384  4423    1
  8879  4385  4410    1
  8880  4385  4425    1
  8881  4387  4422    1
  8882  4388  4413    1
  8883  4389  4414    1
  8884  4389  4417    1
  8885  4392  4409    1
  8886  4394  4413    1
  8887  4395  4405    1
  8888  4395  4422    1
  8889  4400  4419    1
  8890  4400  4425    1
  8891  4401  4416    1
  8892  4401  4421    1
  8893  4403  4417    1
  8894  4403  4424    1
  8895  4404  4450    1
  8896  4404  4460    1
  8897  4404  4464    1
  8898  4404  4470    1
  8899  4404  4480    1
  8900  4404  4484    1
  8901  4404  7031   un
  8902  4404  7216    1
  8903  4404  7242    1
  8904  4404  7376   un
  8905  4404  7396   un
  8906  4404  7420   un
  8907  4405  4412   un
  8908  4405  4420   un
  8909  4405  4422   un
  8910  4405  4465    1
  8911  4405  4485    1
  8912  4405  4504   un
  8913  4405  4548   un
  8914  4405  4835    1
  8915  4405  4856    1
  8916  4406  4411   un
  8917  4406  4421   un
  8918  4406  4462    1
  8919  4406  4482    1
  8920  4406  4524   un
  8921  4406  4744    1
  8922  4406  4767    1
  8923  4406  4787   un
  8924  4406  4800   un
  8925  4406  4808   un
  8926  4406  4841    1
  8927  4406  4862    1
  8928  4407  4409   un
  8929  4407  4418   un
  8930  4407  4423   un
  8931  4407  4458    1
  8932  4407  4467    1
  8933  4407  4478    1
  8934  4407  4487    1
  8935  4407  7379   un
  8936  4407  7423   un
  8937  4407  7618    1
  8938  4407  7640    1
  8939  4408  4414   un
  8940  4408  4424   un
  8941  4408  4451    1
  8942  4408  4459    1
  8943  4408  4471    1
  8944  4408  4479    1
  8945  4408  5504   un
  8946  4408  5546    1
  8947  4408  5559    1
  8948  4408  7399   un
  8949  4408  7443   un
  8950  4408  7671   un
  8951  4408  7679   un
  8952  4408  7707    1
  8953  4408  7727    1
  8954  4409  4423   un
  8955  4409  4467    1
  8956  4409  4487    1
  8957  4409  7380   un
  8958  4409  7400   un
  8959  4409  7424   un
  8960  4409  7618    1
  8961  4409  7640    1
  8962  4410  4415   un
  8963  4410  4425   un
  8964  4410  4456    1
  8965  4410  4476    1
  8966  4410  4778   un
  8967  4410  4839    1
  8968  4410  4860    1
  8969  4410  7401   un
  8970  4410  7620    1
  8971  4410  7642    1
  8972  4410  7672   un
  8973  4410  7680   un
  8974  4411  4416   un
  8975  4411  4452    1
  8976  4411  4462    1
  8977  4411  4472    1
  8978  4411  4482    1
  8979  4411  4787   un
  8980  4411  4841    1
  8981  4411  4862    1
  8982  4411  5266   un
  8983  4411  5308   un
  8984  4411  5519   un
  8985  4411  5525   un
  8986  4411  5539    1
  8987  4411  5552    1
  8988  4412  4420   un
  8989  4412  4453    1
  8990  4412  4457    1
  8991  4412  4465    1
  8992  4412  4473    1
  8993  4412  4477    1
  8994  4412  4485    1
  8995  4412  4509   un
  8996  4412  4531   un
  8997  4412  4553   un
  8998  4412  4816   un
  8999  4412  4835    1
  9000  4412  4856    1
  9001  4413  4466    1
  9002  4413  4486    1
  9003  4413  5202    1
  9004  4413  5220    1
  9005  4413  5245   un
  9006  4413  5267   un
  9007  4413  5287   un
  9008  4414  4417   un
  9009  4414  4459    1
  9010  4414  4479    1
  9011  4414  5268   un
  9012  4414  5472    1
  9013  4414  5491    1
  9014  4414  5504   un
  9015  4414  5520   un
  9016  4414  5526   un
  9017  4414  5546    1
  9018  4414  5559    1
  9019  4415  4419   un
  9020  4415  4455    1
  9021  4415  4456    1
  9022  4415  4475    1
  9023  4415  4476    1
  9024  4415  4534   un
  9025  4415  4578   un
  9026  4415  4778   un
  9027  4415  4805   un
  9028  4415  4813   un
  9029  4415  4834    1
  9030  4415  4839    1
  9031  4415  4855    1
  9032  4415  4860    1
  9033  4416  4421   un
  9034  4416  4452    1
  9035  4416  4472    1
  9036  4416  4738    1
  9037  4416  4761    1
  9038  4416  4787   un
  9039  4416  5272   un
  9040  4416  5529   un
  9041  4416  5539    1
  9042  4416  5552    1
  9043  4417  4424   un
  9044  4417  5274   un
  9045  4417  5314   un
  9046  4417  5465    1
  9047  4417  5472    1
  9048  4417  5484    1
  9049  4417  5491    1
  9050  4417  5504   un
  9051  4418  4423   un
  9052  4418  4454    1
  9053  4418  4458    1
  9054  4418  4469    1
  9055  4418  4474    1
  9056  4418  4478    1
  9057  4418  4489    1
  9058  4419  4425   un
  9059  4419  4455    1
  9060  4419  4475    1
  9061  4419  4540   un
  9062  4419  4778   un
  9063  4419  4821   un
  9064  4419  4824    1
  9065  4419  4834    1
  9066  4419  4845    1
  9067  4419  4855    1
  9068  4420  4422   un
  9069  4420  4453    1
  9070  4420  4468    1
  9071  4420  4473    1
  9072  4420  4488    1
  9073  4420  4835    1
  9074  4420  4856    1
  9075  4421  4542   un
  9076  4421  4582   un
  9077  4421  4738    1
  9078  4421  4744    1
  9079  4421  4761    1
  9080  4421  4767    1
  9081  4421  4787   un
  9082  4422  4468    1
  9083  4422  4488    1
  9084  4423  4469    1
  9085  4423  4489    1
  9086  4423  7457   un
  9087  4423  7618    1
  9088  4423  7640    1
  9089  4424  4451    1
  9090  4424  4471    1
  9091  4424  5465    1
  9092  4424  5484    1
  9093  4424  5504   un
  9094  4424  7417   un
  9095  4424  7693   un
  9096  4424  7707    1
  9097  4424  7727    1
  9098  4425  4778   un
  9099  4425  4824    1
  9100  4425  4845    1
  9101  4425  7419   un
  9102  4425  7459   un
  9103  4425  7620    1
  9104  4425  7642    1
  9105  4426  5392   un
  9106  4427  5394   un
  9107  4428  4664   un
  9108  4429  4666   un
  9109  4430  7541   un
  9110  4431  7543   un
  9111  4434  5399   un
  9112  4435  5400   un
  9113  4436  4659   un
  9114  4437  4660   un
  9115  4438  7536   un
  9116  4439  7537   un
  9117  4444  4598   un
  9118  4445  4595   un
  9119  4446  7463   un
  9120  4447  7460   un
  9121  4448  5326   un
  9122  4449  5323   un
  9123  4450  4470    1
  9124  4451  4471    1
  9125  4452  4472    1
  9126  4453  4473    1
  9127  4454  4474    1
  9128  4455  4475    1
  9129  4456  4476    1
  9130  4457  4477    1
  9131  4458  4478    1
  9132  4459  4479    1
  9133  4460  4480    1
  9134  4461  4481    1
  9135  4462  4482    1
  9136  4463  4483    1
  9137  4464  4484    1
  9138  4465  4485    1
  9139  4466  4486    1
  9140  4467  4487    1
  9141  4468  4488    1
  9142  4469  4489    1
  9143  4490  4491   un
  9144  4490  4494   un
  9145  4490  4500   un
  9146  4490  4502   un
  9147  4490  4505   un
  9148  4490  4525   un
  9149  4490  4549   un
  9150  4490  4569   un
  9151  4490  4733    1
  9152  4490  4743    1
  9153  4490  4747    1
  9154  4490  4749    1
  9155  4490  4756    1
  9156  4490  4766    1
  9157  4490  4770    1
  9158  4490  4772    1
  9159  4491  4494   un
  9160  4491  4497   un
  9161  4491  4502   un
  9162  4491  4508   un
  9163  4491  4529   un
  9164  4491  4552   un
  9165  4491  4573   un
  9166  4491  4736    1
  9167  4491  4741    1
  9168  4491  4747    1
  9169  4491  4749    1
  9170  4491  4759    1
  9171  4491  4764    1
  9172  4491  4770    1
  9173  4491  4772    1
  9174  4492  4496   un
  9175  4492  4530   un
  9176  4492  4574   un
  9177  4492  4737    1
  9178  4492  4745    1
  9179  4492  4760    1
  9180  4492  4768    1
  9181  4492  4779   un
  9182  4492  4786   un
  9183  4492  4796   un
  9184  4492  4803   un
  9185  4492  4811   un
  9186  4492  4831    1
  9187  4492  4840    1
  9188  4492  4852    1
  9189  4492  4861    1
  9190  4493  4498   un
  9191  4493  4532   un
  9192  4493  4742    1
  9193  4493  4765    1
  9194  4493  4781   un
  9195  4493  4783   un
  9196  4493  4792   un
  9197  4493  4804   un
  9198  4493  4812   un
  9199  4493  4817   un
  9200  4493  4828    1
  9201  4493  4832    1
  9202  4493  4842    1
  9203  4493  4849    1
  9204  4493  4853    1
  9205  4493  4863    1
  9206  4494  4497   un
  9207  4494  4500   un
  9208  4494  4510   un
  9209  4494  4533   un
  9210  4494  4554   un
  9211  4494  4577   un
  9212  4494  4740    1
  9213  4494  4741    1
  9214  4494  4743    1
  9215  4494  4749    1
  9216  4494  4763    1
  9217  4494  4764    1
  9218  4494  4766    1
  9219  4494  4772    1
  9220  4495  4511   un
  9221  4495  4535   un
  9222  4495  4555   un
  9223  4495  4735    1
  9224  4495  4750    1
  9225  4495  4758    1
  9226  4495  4773    1
  9227  4495  4784   un
  9228  4495  4789   un
  9229  4495  4793   un
  9230  4495  4799   un
  9231  4495  4818   un
  9232  4495  4829    1
  9233  4495  4830    1
  9234  4495  4850    1
  9235  4495  4851    1
  9236  4496  4536   un
  9237  4496  4737    1
  9238  4496  4760    1
  9239  4496  4786   un
  9240  4496  4794   un
  9241  4496  4796   un
  9242  4496  4806   un
  9243  4496  4814   un
  9244  4496  4819   un
  9245  4496  4827    1
  9246  4496  4831    1
  9247  4496  4843    1
  9248  4496  4848    1
  9249  4496  4852    1
  9250  4496  4864    1
  9251  4497  4500   un
  9252  4497  4502   un
  9253  4497  4513   un
  9254  4497  4537   un
  9255  4497  4557   un
  9256  4497  4579   un
  9257  4497  4736    1
  9258  4497  4740    1
  9259  4497  4741    1
  9260  4497  4752    1
  9261  4497  4759    1
  9262  4497  4763    1
  9263  4497  4764    1
  9264  4497  4775    1
  9265  4498  4538   un
  9266  4498  4580   un
  9267  4498  4734    1
  9268  4498  4742    1
  9269  4498  4757    1
  9270  4498  4765    1
  9271  4498  4783   un
  9272  4498  4792   un
  9273  4498  4797   un
  9274  4498  4807   un
  9275  4498  4815   un
  9276  4498  4828    1
  9277  4498  4844    1
  9278  4498  4849    1
  9279  4498  4865    1
  9280  4499  4515   un
  9281  4499  4539   un
  9282  4499  4559   un
  9283  4499  4739    1
  9284  4499  4753    1
  9285  4499  4762    1
  9286  4499  4776    1
  9287  4499  4782   un
  9288  4499  4788   un
  9289  4499  4791   un
  9290  4499  4798   un
  9291  4499  4820   un
  9292  4499  4825    1
  9293  4499  4833    1
  9294  4499  4846    1
  9295  4499  4854    1
  9296  4500  4502   un
  9297  4500  4517   un
  9298  4500  4541   un
  9299  4500  4561   un
  9300  4500  4581   un
  9301  4500  4733    1
  9302  4500  4740    1
  9303  4500  4743    1
  9304  4500  4752    1
  9305  4500  4756    1
  9306  4500  4763    1
  9307  4500  4766    1
  9308  4500  4775    1
  9309  4501  4519   un
  9310  4501  4543   un
  9311  4501  4563   un
  9312  4501  4732    1
  9313  4501  4751    1
  9314  4501  4755    1
  9315  4501  4774    1
  9316  4501  4780   un
  9317  4501  4785   un
  9318  4501  4790   un
  9319  4501  4795   un
  9320  4501  4822   un
  9321  4501  4826    1
  9322  4501  4836    1
  9323  4501  4847    1
  9324  4501  4857    1
  9325  4502  4521   un
  9326  4502  4545   un
  9327  4502  4565   un
  9328  4502  4585   un
  9329  4502  4733    1
  9330  4502  4736    1
  9331  4502  4747    1
  9332  4502  4752    1
  9333  4502  4756    1
  9334  4502  4759    1
  9335  4502  4770    1
  9336  4502  4775    1
  9337  4503  4659   un
  9338  4504  4660   un
  9339  4505  4661   un
  9340  4506  4662   un
  9341  4507  4663   un
  9342  4508  4665   un
  9343  4509  4667   un
  9344  4510  4669   un
  9345  4511  4671   un
  9346  4512  4672   un
  9347  4512  4790   un
  9348  4513  4673   un
  9349  4514  4674   un
  9350  4514  4791   un
  9351  4515  4675   un
  9352  4516  4676   un
  9353  4516  4793   un
  9354  4517  4677   un
  9355  4518  4678   un
  9356  4518  4795   un
  9357  4519  4679   un
  9358  4520  4680   un
  9359  4520  4798   un
  9360  4521  4681   un
  9361  4522  4682   un
  9362  4522  4799   un
  9363  4523  4587   un
  9364  4524  4588   un
  9365  4525  4589   un
  9366  4526  4590   un
  9367  4527  4591   un
  9368  4528  4592   un
  9369  4529  4593   un
  9370  4530  4594   un
  9371  4531  4595   un
  9372  4532  4596   un
  9373  4533  4597   un
  9374  4534  4598   un
  9375  4535  4599   un
  9376  4536  4600   un
  9377  4537  4601   un
  9378  4538  4602   un
  9379  4539  4603   un
  9380  4540  4604   un
  9381  4541  4605   un
  9382  4542  4606   un
  9383  4543  4607   un
  9384  4544  4608   un
  9385  4545  4609   un
  9386  4546  4610   un
  9387  4547  4670   un
  9388  4548  4667   un
  9389  4549  4669   un
  9390  4550  4668   un
  9391  4551  4662   un
  9392  4552  4661   un
  9393  4553  4666   un
  9394  4554  4665   un
  9395  4555  4682   un
  9396  4556  4679   un
  9397  4556  4790   un
  9398  4557  4681   un
  9399  4558  4680   un
  9400  4558  4791   un
  9401  4559  4674   un
  9402  4560  4671   un
  9403  4560  4793   un
  9404  4561  4673   un
  9405  4562  4672   un
  9406  4562  4795   un
  9407  4563  4678   un
  9408  4564  4675   un
  9409  4564  4798   un
  9410  4565  4677   un
  9411  4566  4676   un
  9412  4566  4799   un
  9413  4567  4610   un
  9414  4567  4777   un
  9415  4568  4607   un
  9416  4568  4780   un
  9417  4569  4609   un
  9418  4570  4608   un
  9419  4571  4602   un
  9420  4571  4783   un
  9421  4572  4599   un
  9422  4572  4784   un
  9423  4573  4601   un
  9424  4574  4600   un
  9425  4575  4606   un
  9426  4575  4787   un
  9427  4576  4603   un
  9428  4576  4788   un
  9429  4577  4605   un
  9430  4578  4604   un
  9431  4579  4597   un
  9432  4580  4596   un
  9433  4581  4589   un
  9434  4582  4588   un
  9435  4583  4594   un
  9436  4583  4796   un
  9437  4584  4591   un
  9438  4585  4593   un
  9439  4586  4592   un
  9440  4587  4611   un
  9441  4588  4612   un
  9442  4589  4613   un
  9443  4590  4614   un
  9444  4591  4615   un
  9445  4592  4616   un
  9446  4593  4617   un
  9447  4594  4618   un
  9448  4595  4619   un
  9449  4596  4620   un
  9450  4597  4621   un
  9451  4598  4622   un
  9452  4599  4623   un
  9453  4600  4624   un
  9454  4601  4625   un
  9455  4602  4626   un
  9456  4603  4627   un
  9457  4604  4628   un
  9458  4605  4629   un
  9459  4606  4630   un
  9460  4607  4631   un
  9461  4608  4632   un
  9462  4609  4633   un
  9463  4610  4634   un
  9464  4611  4612   un
  9465  4611  4635    1
  9466  4612  4636    1
  9467  4613  4614   un
  9468  4613  4637    1
  9469  4614  4638    1
  9470  4615  4616   un
  9471  4615  4639    1
  9472  4616  4640    1
  9473  4617  4618   un
  9474  4617  4641    1
  9475  4618  4642    1
  9476  4619  4620   un
  9477  4619  4643    1
  9478  4620  4644    1
  9479  4621  4622   un
  9480  4621  4645    1
  9481  4622  4646    1
  9482  4623  4624   un
  9483  4623  4647    1
  9484  4624  4648    1
  9485  4625  4626   un
  9486  4625  4649    1
  9487  4626  4650    1
  9488  4627  4628   un
  9489  4627  4651    1
  9490  4628  4652    1
  9491  4629  4630   un
  9492  4629  4653    1
  9493  4630  4654    1
  9494  4631  4632   un
  9495  4631  4655    1
  9496  4632  4656    1
  9497  4633  4634   un
  9498  4633  4657    1
  9499  4634  4658    1
  9500  4659  4683   un
  9501  4660  4684   un
  9502  4661  4685   un
  9503  4662  4686   un
  9504  4663  4687   un
  9505  4664  4688   un
  9506  4665  4689   un
  9507  4666  4690   un
  9508  4667  4691   un
  9509  4668  4692   un
  9510  4669  4693   un
  9511  4670  4694   un
  9512  4671  4695   un
  9513  4672  4696   un
  9514  4673  4697   un
  9515  4674  4698   un
  9516  4675  4699   un
  9517  4676  4700   un
  9518  4677  4701   un
  9519  4678  4702   un
  9520  4679  4703   un
  9521  4680  4704   un
  9522  4681  4705   un
  9523  4682  4706   un
  9524  4683  4684   un
  9525  4683  4707    1
  9526  4684  4708    1
  9527  4685  4686   un
  9528  4685  4709    1
  9529  4686  4710    1
  9530  4687  4688   un
  9531  4687  4711    1
  9532  4688  4712    1
  9533  4689  4690   un
  9534  4689  4713    1
  9535  4690  4714    1
  9536  4691  4692   un
  9537  4691  4715    1
  9538  4692  4716    1
  9539  4693  4694   un
  9540  4693  4717    1
  9541  4694  4718    1
  9542  4695  4696   un
  9543  4695  4719    1
  9544  4696  4720    1
  9545  4697  4698   un
  9546  4697  4721    1
  9547  4698  4722    1
  9548  4699  4700   un
  9549  4699  4723    1
  9550  4700  4724    1
  9551  4701  4702   un
  9552  4701  4725    1
  9553  4702  4726    1
  9554  4703  4704   un
  9555  4703  4727    1
  9556  4704  4728    1
  9557  4705  4706   un
  9558  4705  4729    1
  9559  4706  4730    1
  9560  4731  4754    1
  9561  4731  4777    1
  9562  4732  4755    1
  9563  4732  4780    1
  9564  4732  4795    1
  9565  4733  4756    1
  9566  4734  4757    1
  9567  4734  4783    1
  9568  4734  4797    1
  9569  4735  4758    1
  9570  4735  4784    1
  9571  4735  4799    1
  9572  4736  4759    1
  9573  4737  4760    1
  9574  4737  4796    1
  9575  4738  4761    1
  9576  4738  4787    1
  9577  4739  4762    1
  9578  4739  4788    1
  9579  4739  4791    1
  9580  4740  4763    1
  9581  4741  4764    1
  9582  4742  4765    1
  9583  4742  4783    1
  9584  4743  4766    1
  9585  4744  4767    1
  9586  4744  4787    1
  9587  4745  4768    1
  9588  4745  4779    1
  9589  4745  4796    1
  9590  4746  4769    1
  9591  4747  4770    1
  9592  4748  4771    1
  9593  4748  4777    1
  9594  4749  4772    1
  9595  4750  4773    1
  9596  4750  4793    1
  9597  4750  4799    1
  9598  4751  4774    1
  9599  4751  4790    1
  9600  4751  4795    1
  9601  4752  4775    1
  9602  4753  4776    1
  9603  4753  4791    1
  9604  4753  4798    1
  9605  4754  4777    1
  9606  4755  4780    1
  9607  4755  4795    1
  9608  4757  4783    1
  9609  4757  4797    1
  9610  4758  4784    1
  9611  4758  4799    1
  9612  4760  4796    1
  9613  4761  4787    1
  9614  4762  4788    1
  9615  4762  4791    1
  9616  4765  4783    1
  9617  4767  4787    1
  9618  4768  4779    1
  9619  4768  4796    1
  9620  4771  4777    1
  9621  4773  4793    1
  9622  4773  4799    1
  9623  4774  4790    1
  9624  4774  4795    1
  9625  4776  4791    1
  9626  4776  4798    1
  9627  4777  4838    1
  9628  4777  4859    1
  9629  4778  4824    1
  9630  4778  4834    1
  9631  4778  4839    1
  9632  4778  4845    1
  9633  4778  4855    1
  9634  4778  4860    1
  9635  4778  7440   un
  9636  4778  7620    1
  9637  4778  7642    1
  9638  4778  7747   un
  9639  4778  7767   un
  9640  4778  7791   un
  9641  4779  4786   un
  9642  4779  4794   un
  9643  4779  4796   un
  9644  4779  4840    1
  9645  4779  4861    1
  9646  4780  4785   un
  9647  4780  4795   un
  9648  4780  4836    1
  9649  4780  4857    1
  9650  4780  5838   un
  9651  4780  5879    1
  9652  4780  5895    1
  9653  4781  4783   un
  9654  4781  4792   un
  9655  4781  4797   un
  9656  4781  4832    1
  9657  4781  4842    1
  9658  4781  4853    1
  9659  4781  4863    1
  9660  4781  7750   un
  9661  4781  7794   un
  9662  4781  7990    1
  9663  4781  8013    1
  9664  4782  4788   un
  9665  4782  4798   un
  9666  4782  4825    1
  9667  4782  4833    1
  9668  4782  4846    1
  9669  4782  4854    1
  9670  4782  5835   un
  9671  4782  5881    1
  9672  4782  5897    1
  9673  4782  7770   un
  9674  4782  7814   un
  9675  4782  8045   un
  9676  4782  8053   un
  9677  4782  8081    1
  9678  4782  8102    1
  9679  4783  4797   un
  9680  4783  4842    1
  9681  4783  4863    1
  9682  4783  7751   un
  9683  4783  7771   un
  9684  4783  7795   un
  9685  4783  7990    1
  9686  4783  8013    1
  9687  4784  4789   un
  9688  4784  4799   un
  9689  4784  4830    1
  9690  4784  4851    1
  9691  4784  7772   un
  9692  4784  7992    1
  9693  4784  8015    1
  9694  4784  8021   un
  9695  4784  8046   un
  9696  4784  8054   un
  9697  4784  8082    1
  9698  4784  8103    1
  9699  4785  4790   un
  9700  4785  4826    1
  9701  4785  4836    1
  9702  4785  4847    1
  9703  4785  4857    1
  9704  4785  5594   un
  9705  4785  5636   un
  9706  4785  5838   un
  9707  4785  5851   un
  9708  4785  5857   un
  9709  4785  5872    1
  9710  4785  5879    1
  9711  4785  5888    1
  9712  4785  5895    1
  9713  4786  4794   un
  9714  4786  4827    1
  9715  4786  4831    1
  9716  4786  4840    1
  9717  4786  4848    1
  9718  4786  4852    1
  9719  4786  4861    1
  9720  4787  4841    1
  9721  4787  4862    1
  9722  4787  5539    1
  9723  4787  5552    1
  9724  4787  5573   un
  9725  4787  5595   un
  9726  4787  5615   un
  9727  4788  4791   un
  9728  4788  4833    1
  9729  4788  4854    1
  9730  4788  5596   un
  9731  4788  5801    1
  9732  4788  5821    1
  9733  4788  5835   un
  9734  4788  5852   un
  9735  4788  5858   un
  9736  4788  5881    1
  9737  4788  5897    1
  9738  4789  4793   un
  9739  4789  4829    1
  9740  4789  4830    1
  9741  4789  4850    1
  9742  4789  4851    1
  9743  4789  8021   un
  9744  4789  8082    1
  9745  4789  8103    1
  9746  4790  4795   un
  9747  4790  4826    1
  9748  4790  4847    1
  9749  4790  5600   un
  9750  4790  5838   un
  9751  4790  5861   un
  9752  4790  5869    1
  9753  4790  5872    1
  9754  4790  5885    1
  9755  4790  5888    1
  9756  4791  4798   un
  9757  4791  5602   un
  9758  4791  5642   un
  9759  4791  5794    1
  9760  4791  5801    1
  9761  4791  5814    1
  9762  4791  5821    1
  9763  4791  5835   un
  9764  4792  4797   un
  9765  4792  4828    1
  9766  4792  4832    1
  9767  4792  4844    1
  9768  4792  4849    1
  9769  4792  4853    1
  9770  4792  4865    1
  9771  4793  4799   un
  9772  4793  4829    1
  9773  4793  4850    1
  9774  4793  7975    1
  9775  4793  7998    1
  9776  4793  8021   un
  9777  4794  4796   un
  9778  4794  4827    1
  9779  4794  4843    1
  9780  4794  4848    1
  9781  4794  4864    1
  9782  4795  5838   un
  9783  4795  5869    1
  9784  4795  5885    1
  9785  4796  4843    1
  9786  4796  4864    1
  9787  4797  4844    1
  9788  4797  4865    1
  9789  4797  7828   un
  9790  4797  7990    1
  9791  4797  8013    1
  9792  4798  4825    1
  9793  4798  4846    1
  9794  4798  5794    1
  9795  4798  5814    1
  9796  4798  5835   un
  9797  4798  7788   un
  9798  4798  8067   un
  9799  4798  8081    1
  9800  4798  8102    1
  9801  4799  7790   un
  9802  4799  7830   un
  9803  4799  7975    1
  9804  4799  7992    1
  9805  4799  7998    1
  9806  4799  8015    1
  9807  4799  8021   un
  9808  4800  5720   un
  9809  4801  5722   un
  9810  4804  7912   un
  9811  4805  7914   un
  9812  4808  5727   un
  9813  4809  5728   un
  9814  4812  7907   un
  9815  4813  7908   un
  9816  4820  7834   un
  9817  4821  7831   un
  9818  4822  5654   un
  9819  4823  5651   un
  9820  4824  4845    1
  9821  4825  4846    1
  9822  4826  4847    1
  9823  4827  4848    1
  9824  4828  4849    1
  9825  4829  4850    1
  9826  4830  4851    1
  9827  4831  4852    1
  9828  4832  4853    1
  9829  4833  4854    1
  9830  4834  4855    1
  9831  4835  4856    1
  9832  4836  4857    1
  9833  4837  4858    1
  9834  4838  4859    1
  9835  4839  4860    1
  9836  4840  4861    1
  9837  4841  4862    1
  9838  4842  4863    1
  9839  4843  4864    1
  9840  4844  4865    1
  9841  4866  4876   un
  9842  4866  4900   un
  9843  4866  5121    1
  9844  4866  5143    1
  9845  4866  5157   un
  9846  4866  5159   un
  9847  4866  5168   un
  9848  4866  5172   un
  9849  4866  5180   un
  9850  4866  5189   un
  9851  4866  5197    1
  9852  4866  5205    1
  9853  4866  5210    1
  9854  4866  5215    1
  9855  4866  5223    1
  9856  4866  5228    1
  9857  4867  4868   un
  9858  4867  4869   un
  9859  4867  4875   un
  9860  4867  4878   un
  9861  4867  4880   un
  9862  4867  4901   un
  9863  4867  4924   un
  9864  4867  4945   un
  9865  4867  5108    1
  9866  4867  5120    1
  9867  4867  5122    1
  9868  4867  5124    1
  9869  4867  5130    1
  9870  4867  5142    1
  9871  4867  5144    1
  9872  4867  5146    1
  9873  4868  4869   un
  9874  4868  4872   un
  9875  4868  4878   un
  9876  4868  4883   un
  9877  4868  4905   un
  9878  4868  4927   un
  9879  4868  4949   un
  9880  4868  5111    1
  9881  4868  5118    1
  9882  4868  5122    1
  9883  4868  5124    1
  9884  4868  5133    1
  9885  4868  5140    1
  9886  4868  5144    1
  9887  4868  5146    1
  9888  4869  4872   un
  9889  4869  4875   un
  9890  4869  4886   un
  9891  4869  4909   un
  9892  4869  4930   un
  9893  4869  4953   un
  9894  4869  5114    1
  9895  4869  5118    1
  9896  4869  5120    1
  9897  4869  5124    1
  9898  4869  5136    1
  9899  4869  5140    1
  9900  4869  5142    1
  9901  4869  5146    1
  9902  4870  4874   un
  9903  4870  4910   un
  9904  4870  4954   un
  9905  4870  5115    1
  9906  4870  5116    1
  9907  4870  5137    1
  9908  4870  5138    1
  9909  4870  5151   un
  9910  4870  5155   un
  9911  4870  5162   un
  9912  4870  5177   un
  9913  4870  5185   un
  9914  4870  5204    1
  9915  4870  5209    1
  9916  4870  5222    1
  9917  4870  5227    1
  9918  4871  4887   un
  9919  4871  4911   un
  9920  4871  4931   un
  9921  4871  5110    1
  9922  4871  5125    1
  9923  4871  5132    1
  9924  4871  5147    1
  9925  4871  5156   un
  9926  4871  5161   un
  9927  4871  5166   un
  9928  4871  5171   un
  9929  4871  5190   un
  9930  4871  5200    1
  9931  4871  5201    1
  9932  4871  5218    1
  9933  4871  5219    1
  9934  4872  4875   un
  9935  4872  4878   un
  9936  4872  4889   un
  9937  4872  4913   un
  9938  4872  4933   un
  9939  4872  4957   un
  9940  4872  5111    1
  9941  4872  5114    1
  9942  4872  5118    1
  9943  4872  5127    1
  9944  4872  5133    1
  9945  4872  5136    1
  9946  4872  5140    1
  9947  4872  5149    1
  9948  4873  4891   un
  9949  4873  4915   un
  9950  4873  4935   un
  9951  4873  5113    1
  9952  4873  5128    1
  9953  4873  5135    1
  9954  4873  5150    1
  9955  4873  5153   un
  9956  4873  5160   un
  9957  4873  5165   un
  9958  4873  5169   un
  9959  4873  5192   un
  9960  4873  5198    1
  9961  4873  5203    1
  9962  4873  5216    1
  9963  4873  5221    1
  9964  4874  4916   un
  9965  4874  5115    1
  9966  4874  5137    1
  9967  4874  5151   un
  9968  4874  5162   un
  9969  4874  5170   un
  9970  4874  5178   un
  9971  4874  5186   un
  9972  4874  5193   un
  9973  4874  5196    1
  9974  4874  5204    1
  9975  4874  5212    1
  9976  4874  5214    1
  9977  4874  5222    1
  9978  4874  5230    1
  9979  4875  4878   un
  9980  4875  4893   un
  9981  4875  4917   un
  9982  4875  4937   un
  9983  4875  4959   un
  9984  4875  5108    1
  9985  4875  5114    1
  9986  4875  5120    1
  9987  4875  5127    1
  9988  4875  5130    1
  9989  4875  5136    1
  9990  4875  5142    1
  9991  4875  5149    1
  9992  4876  4918   un
  9993  4876  4960   un
  9994  4876  5112    1
  9995  4876  5121    1
  9996  4876  5134    1
  9997  4876  5143    1
  9998  4876  5159   un
  9999  4876  5163   un
 10000  4876  5168   un
 10001  4876  5179   un
 10002  4876  5187   un
 10003  4876  5197    1
 10004  4876  5213    1
 10005  4876  5215    1
 10006  4876  5231    1
 10007  4877  4895   un
 10008  4877  4919   un
 10009  4877  4939   un
 10010  4877  5107    1
 10011  4877  5126    1
 10012  4877  5129    1
 10013  4877  5148    1
 10014  4877  5152   un
 10015  4877  5158   un
 10016  4877  5164   un
 10017  4877  5167   un
 10018  4877  5194   un
 10019  4877  5199    1
 10020  4877  5206    1
 10021  4877  5217    1
 10022  4877  5224    1
 10023  4878  4897   un
 10024  4878  4921   un
 10025  4878  4941   un
 10026  4878  4961   un
 10027  4878  5108    1
 10028  4878  5111    1
 10029  4878  5122    1
 10030  4878  5127    1
 10031  4878  5130    1
 10032  4878  5133    1
 10033  4878  5144    1
 10034  4878  5149    1
 10035  4879  5035   un
 10036  4880  5037   un
 10037  4881  5039   un
 10038  4882  5040   un
 10039  4883  5041   un
 10040  4884  5042   un
 10041  4885  5043   un
 10042  4886  5045   un
 10043  4887  5047   un
 10044  4888  5048   un
 10045  4888  5164   un
 10046  4889  5049   un
 10047  4890  5050   un
 10048  4890  5165   un
 10049  4891  5051   un
 10050  4892  5052   un
 10051  4892  5166   un
 10052  4893  5053   un
 10053  4894  5054   un
 10054  4894  5167   un
 10055  4895  5055   un
 10056  4896  5056   un
 10057  4896  5169   un
 10058  4897  5057   un
 10059  4898  5058   un
 10060  4898  5171   un
 10061  4899  4963   un
 10062  4900  4964   un
 10063  4901  4965   un
 10064  4902  4966   un
 10065  4903  4967   un
 10066  4904  4968   un
 10067  4905  4969   un
 10068  4906  4970   un
 10069  4907  4971   un
 10070  4908  4972   un
 10071  4909  4973   un
 10072  4910  4974   un
 10073  4911  4975   un
 10074  4912  4976   un
 10075  4913  4977   un
 10076  4914  4978   un
 10077  4915  4979   un
 10078  4916  4980   un
 10079  4917  4981   un
 10080  4918  4982   un
 10081  4919  4983   un
 10082  4920  4984   un
 10083  4921  4985   un
 10084  4922  4986   un
 10085  4923  5046   un
 10086  4924  5045   un
 10087  4925  5038   un
 10088  4926  5035   un
 10089  4927  5037   un
 10090  4928  5036   un
 10091  4929  5042   un
 10092  4930  5041   un
 10093  4931  5058   un
 10094  4932  5055   un
 10095  4932  5164   un
 10096  4933  5057   un
 10097  4934  5056   un
 10098  4934  5165   un
 10099  4935  5050   un
 10100  4936  5047   un
 10101  4936  5166   un
 10102  4937  5049   un
 10103  4938  5048   un
 10104  4938  5167   un
 10105  4939  5054   un
 10106  4940  5051   un
 10107  4940  5169   un
 10108  4941  5053   un
 10109  4942  5052   un
 10110  4942  5171   un
 10111  4943  4986   un
 10112  4944  4983   un
 10113  4944  5152   un
 10114  4945  4985   un
 10115  4946  4984   un
 10116  4947  4978   un
 10117  4947  5154   un
 10118  4948  4975   un
 10119  4948  5156   un
 10120  4949  4977   un
 10121  4950  4976   un
 10122  4951  4982   un
 10123  4951  5159   un
 10124  4952  4979   un
 10125  4952  5160   un
 10126  4953  4981   un
 10127  4954  4980   un
 10128  4955  4974   un
 10129  4955  5162   un
 10130  4956  4971   un
 10131  4957  4973   un
 10132  4958  4972   un
 10133  4959  4965   un
 10134  4960  4964   un
 10135  4961  4969   un
 10136  4962  4968   un
 10137  4963  4987   un
 10138  4964  4988   un
 10139  4965  4989   un
 10140  4966  4990   un
 10141  4967  4991   un
 10142  4968  4992   un
 10143  4969  4993   un
 10144  4970  4994   un
 10145  4971  4995   un
 10146  4972  4996   un
 10147  4973  4997   un
 10148  4974  4998   un
 10149  4975  4999   un
 10150  4976  5000   un
 10151  4977  5001   un
 10152  4978  5002   un
 10153  4979  5003   un
 10154  4980  5004   un
 10155  4981  5005   un
 10156  4982  5006   un
 10157  4983  5007   un
 10158  4984  5008   un
 10159  4985  5009   un
 10160  4986  5010   un
 10161  4987  4988   un
 10162  4987  5011    1
 10163  4988  5012    1
 10164  4989  4990   un
 10165  4989  5013    1
 10166  4990  5014    1
 10167  4991  4992   un
 10168  4991  5015    1
 10169  4992  5016    1
 10170  4993  4994   un
 10171  4993  5017    1
 10172  4994  5018    1
 10173  4995  4996   un
 10174  4995  5019    1
 10175  4996  5020    1
 10176  4997  4998   un
 10177  4997  5021    1
 10178  4998  5022    1
 10179  4999  5000   un
 10180  4999  5023    1
 10181  5000  5024    1
 10182  5001  5002   un
 10183  5001  5025    1
 10184  5002  5026    1
 10185  5003  5004   un
 10186  5003  5027    1
 10187  5004  5028    1
 10188  5005  5006   un
 10189  5005  5029    1
 10190  5006  5030    1
 10191  5007  5008   un
 10192  5007  5031    1
 10193  5008  5032    1
 10194  5009  5010   un
 10195  5009  5033    1
 10196  5010  5034    1
 10197  5035  5059   un
 10198  5036  5060   un
 10199  5037  5061   un
 10200  5038  5062   un
 10201  5039  5063   un
 10202  5040  5064   un
 10203  5041  5065   un
 10204  5042  5066   un
 10205  5043  5067   un
 10206  5044  5068   un
 10207  5045  5069   un
 10208  5046  5070   un
 10209  5047  5071   un
 10210  5048  5072   un
 10211  5049  5073   un
 10212  5050  5074   un
 10213  5051  5075   un
 10214  5052  5076   un
 10215  5053  5077   un
 10216  5054  5078   un
 10217  5055  5079   un
 10218  5056  5080   un
 10219  5057  5081   un
 10220  5058  5082   un
 10221  5059  5060   un
 10222  5059  5083    1
 10223  5060  5084    1
 10224  5061  5062   un
 10225  5061  5085    1
 10226  5062  5086    1
 10227  5063  5064   un
 10228  5063  5087    1
 10229  5064  5088    1
 10230  5065  5066   un
 10231  5065  5089    1
 10232  5066  5090    1
 10233  5067  5068   un
 10234  5067  5091    1
 10235  5068  5092    1
 10236  5069  5070   un
 10237  5069  5093    1
 10238  5070  5094    1
 10239  5071  5072   un
 10240  5071  5095    1
 10241  5072  5096    1
 10242  5073  5074   un
 10243  5073  5097    1
 10244  5074  5098    1
 10245  5075  5076   un
 10246  5075  5099    1
 10247  5076  5100    1
 10248  5077  5078   un
 10249  5077  5101    1
 10250  5078  5102    1
 10251  5079  5080   un
 10252  5079  5103    1
 10253  5080  5104    1
 10254  5081  5082   un
 10255  5081  5105    1
 10256  5082  5106    1
 10257  5107  5129    1
 10258  5107  5152    1
 10259  5107  5167    1
 10260  5108  5130    1
 10261  5109  5131    1
 10262  5109  5154    1
 10263  5110  5132    1
 10264  5110  5156    1
 10265  5110  5171    1
 10266  5111  5133    1
 10267  5112  5134    1
 10268  5112  5159    1
 10269  5112  5163    1
 10270  5113  5135    1
 10271  5113  5160    1
 10272  5113  5165    1
 10273  5114  5136    1
 10274  5115  5137    1
 10275  5115  5162    1
 10276  5116  5138    1
 10277  5116  5155    1
 10278  5116  5162    1
 10279  5117  5139    1
 10280  5118  5140    1
 10281  5119  5141    1
 10282  5119  5154    1
 10283  5120  5142    1
 10284  5121  5143    1
 10285  5121  5159    1
 10286  5122  5144    1
 10287  5123  5145    1
 10288  5124  5146    1
 10289  5125  5147    1
 10290  5125  5166    1
 10291  5125  5171    1
 10292  5126  5148    1
 10293  5126  5164    1
 10294  5126  5167    1
 10295  5127  5149    1
 10296  5128  5150    1
 10297  5128  5165    1
 10298  5128  5169    1
 10299  5129  5152    1
 10300  5129  5167    1
 10301  5131  5154    1
 10302  5132  5156    1
 10303  5132  5171    1
 10304  5134  5159    1
 10305  5134  5163    1
 10306  5135  5160    1
 10307  5135  5165    1
 10308  5137  5162    1
 10309  5138  5155    1
 10310  5138  5162    1
 10311  5141  5154    1
 10312  5143  5159    1
 10313  5147  5166    1
 10314  5147  5171    1
 10315  5148  5164    1
 10316  5148  5167    1
 10317  5150  5165    1
 10318  5150  5169    1
 10319  5151  5155   un
 10320  5151  5170   un
 10321  5151  5196    1
 10322  5151  5204    1
 10323  5151  5209    1
 10324  5151  5214    1
 10325  5151  5222    1
 10326  5151  5227    1
 10327  5151  8123   un
 10328  5151  8143   un
 10329  5151  8167   un
 10330  5151  8432   un
 10331  5151  8452    1
 10332  5151  8470    1
 10333  5152  5158   un
 10334  5152  5167   un
 10335  5152  5206    1
 10336  5152  5224    1
 10337  5152  5260   un
 10338  5152  5474    1
 10339  5152  5493    1
 10340  5152  5507   un
 10341  5152  5516   un
 10342  5152  5522   un
 10343  5152  5545    1
 10344  5152  5558    1
 10345  5153  5160   un
 10346  5153  5169   un
 10347  5153  5198    1
 10348  5153  5203    1
 10349  5153  5216    1
 10350  5153  5221    1
 10351  5153  6187   un
 10352  5153  6246    1
 10353  5153  6266    1
 10354  5153  8146   un
 10355  5153  8190   un
 10356  5153  8417   un
 10357  5153  8425   un
 10358  5153  8451    1
 10359  5153  8469    1
 10360  5154  5211    1
 10361  5154  5229    1
 10362  5154  7327    1
 10363  5154  7353    1
 10364  5154  8125   un
 10365  5154  8147   un
 10366  5154  8169   un
 10367  5155  5162   un
 10368  5155  5170   un
 10369  5155  5209    1
 10370  5155  5227    1
 10371  5155  8126   un
 10372  5155  8170   un
 10373  5155  8452    1
 10374  5155  8470    1
 10375  5156  5161   un
 10376  5156  5171   un
 10377  5156  5201    1
 10378  5156  5219    1
 10379  5156  5501   un
 10380  5156  5544    1
 10381  5156  5557    1
 10382  5156  8148   un
 10383  5156  8367    1
 10384  5156  8389    1
 10385  5156  8418   un
 10386  5156  8426   un
 10387  5157  5159   un
 10388  5157  5163   un
 10389  5157  5168   un
 10390  5157  5205    1
 10391  5157  5210    1
 10392  5157  5223    1
 10393  5157  5228    1
 10394  5157  5916   un
 10395  5157  5960   un
 10396  5157  6149    1
 10397  5157  6171    1
 10398  5158  5164   un
 10399  5158  5199    1
 10400  5158  5206    1
 10401  5158  5217    1
 10402  5158  5224    1
 10403  5158  5507   un
 10404  5158  5545    1
 10405  5158  5558    1
 10406  5158  5938   un
 10407  5158  5982   un
 10408  5158  6208   un
 10409  5158  6216   un
 10410  5158  6236    1
 10411  5158  6256    1
 10412  5159  5163   un
 10413  5159  5210    1
 10414  5159  5228    1
 10415  5159  5917   un
 10416  5159  5939   un
 10417  5159  5961   un
 10418  5159  6149    1
 10419  5159  6171    1
 10420  5160  5165   un
 10421  5160  5203    1
 10422  5160  5221    1
 10423  5160  5940   un
 10424  5160  6151    1
 10425  5160  6173    1
 10426  5160  6187   un
 10427  5160  6209   un
 10428  5160  6217   un
 10429  5160  6246    1
 10430  5160  6266    1
 10431  5161  5166   un
 10432  5161  5200    1
 10433  5161  5201    1
 10434  5161  5218    1
 10435  5161  5219    1
 10436  5161  5270   un
 10437  5161  5312   un
 10438  5161  5501   un
 10439  5161  5521   un
 10440  5161  5527   un
 10441  5161  5541    1
 10442  5161  5544    1
 10443  5161  5554    1
 10444  5161  5557    1
 10445  5162  5170   un
 10446  5162  5212    1
 10447  5162  5230    1
 10448  5163  5168   un
 10449  5163  5213    1
 10450  5163  5231    1
 10451  5163  5988   un
 10452  5163  6149    1
 10453  5163  6171    1
 10454  5164  5167   un
 10455  5164  5199    1
 10456  5164  5217    1
 10457  5164  5468    1
 10458  5164  5487    1
 10459  5164  5507   un
 10460  5164  5944   un
 10461  5164  6224   un
 10462  5164  6236    1
 10463  5164  6256    1
 10464  5165  5169   un
 10465  5165  5946   un
 10466  5165  5990   un
 10467  5165  6141    1
 10468  5165  6151    1
 10469  5165  6163    1
 10470  5165  6173    1
 10471  5165  6187   un
 10472  5166  5171   un
 10473  5166  5200    1
 10474  5166  5218    1
 10475  5166  5276   un
 10476  5166  5501   un
 10477  5166  5531   un
 10478  5166  5534    1
 10479  5166  5541    1
 10480  5166  5547    1
 10481  5166  5554    1
 10482  5167  5278   un
 10483  5167  5316   un
 10484  5167  5468    1
 10485  5167  5474    1
 10486  5167  5487    1
 10487  5167  5493    1
 10488  5167  5507   un
 10489  5168  5197    1
 10490  5168  5205    1
 10491  5168  5213    1
 10492  5168  5215    1
 10493  5168  5223    1
 10494  5168  5231    1
 10495  5169  5198    1
 10496  5169  5216    1
 10497  5169  6141    1
 10498  5169  6163    1
 10499  5169  6187   un
 10500  5169  8164   un
 10501  5169  8439   un
 10502  5169  8451    1
 10503  5169  8469    1
 10504  5170  5196    1
 10505  5170  5212    1
 10506  5170  5214    1
 10507  5170  5230    1
 10508  5170  8452    1
 10509  5170  8470    1
 10510  5171  5501   un
 10511  5171  5534    1
 10512  5171  5547    1
 10513  5171  8166   un
 10514  5171  8206   un
 10515  5171  8367    1
 10516  5171  8389    1
 10517  5172  6068   un
 10518  5173  6070   un
 10519  5174  5396   un
 10520  5175  5398   un
 10521  5176  8288   un
 10522  5177  8290   un
 10523  5180  6075   un
 10524  5181  6076   un
 10525  5182  5391   un
 10526  5183  5392   un
 10527  5184  8283   un
 10528  5185  8284   un
 10529  5190  5330   un
 10530  5191  5327   un
 10531  5192  8210   un
 10532  5193  8207   un
 10533  5194  6002   un
 10534  5195  5999   un
 10535  5196  5214    1
 10536  5197  5215    1
 10537  5198  5216    1
 10538  5199  5217    1
 10539  5200  5218    1
 10540  5201  5219    1
 10541  5202  5220    1
 10542  5203  5221    1
 10543  5204  5222    1
 10544  5205  5223    1
 10545  5206  5224    1
 10546  5207  5225    1
 10547  5208  5226    1
 10548  5209  5227    1
 10549  5210  5228    1
 10550  5211  5229    1
 10551  5212  5230    1
 10552  5213  5231    1
 10553  5232  5233   un
 10554  5232  5234   un
 10555  5232  5238   un
 10556  5232  5240   un
 10557  5232  5242   un
 10558  5232  5261   un
 10559  5232  5284   un
 10560  5232  5303   un
 10561  5232  5464    1
 10562  5232  5473    1
 10563  5232  5475    1
 10564  5232  5477    1
 10565  5232  5483    1
 10566  5232  5492    1
 10567  5232  5494    1
 10568  5232  5496    1
 10569  5233  5234   un
 10570  5233  5236   un
 10571  5233  5240   un
 10572  5233  5244   un
 10573  5233  5265   un
 10574  5233  5286   un
 10575  5233  5307   un
 10576  5233  5467    1
 10577  5233  5471    1
 10578  5233  5475    1
 10579  5233  5477    1
 10580  5233  5486    1
 10581  5233  5490    1
 10582  5233  5494    1
 10583  5233  5496    1
 10584  5234  5236   un
 10585  5234  5238   un
 10586  5234  5246   un
 10587  5234  5269   un
 10588  5234  5288   un
 10589  5234  5311   un
 10590  5234  5470    1
 10591  5234  5471    1
 10592  5234  5473    1
 10593  5234  5477    1
 10594  5234  5489    1
 10595  5234  5490    1
 10596  5234  5492    1
 10597  5234  5496    1
 10598  5235  5247   un
 10599  5235  5271   un
 10600  5235  5289   un
 10601  5235  5466    1
 10602  5235  5478    1
 10603  5235  5485    1
 10604  5235  5497    1
 10605  5235  5505   un
 10606  5235  5509   un
 10607  5235  5512   un
 10608  5235  5515   un
 10609  5235  5528   un
 10610  5235  5537    1
 10611  5235  5538    1
 10612  5235  5550    1
 10613  5235  5551    1
 10614  5236  5238   un
 10615  5236  5240   un
 10616  5236  5249   un
 10617  5236  5273   un
 10618  5236  5291   un
 10619  5236  5313   un
 10620  5236  5467    1
 10621  5236  5470    1
 10622  5236  5471    1
 10623  5236  5480    1
 10624  5236  5486    1
 10625  5236  5489    1
 10626  5236  5490    1
 10627  5236  5499    1
 10628  5237  5251   un
 10629  5237  5275   un
 10630  5237  5293   un
 10631  5237  5469    1
 10632  5237  5481    1
 10633  5237  5488    1
 10634  5237  5500    1
 10635  5237  5503   un
 10636  5237  5508   un
 10637  5237  5511   un
 10638  5237  5514   un
 10639  5237  5530   un
 10640  5237  5535    1
 10641  5237  5540    1
 10642  5237  5548    1
 10643  5237  5553    1
 10644  5238  5240   un
 10645  5238  5253   un
 10646  5238  5277   un
 10647  5238  5295   un
 10648  5238  5315   un
 10649  5238  5464    1
 10650  5238  5470    1
 10651  5238  5473    1
 10652  5238  5480    1
 10653  5238  5483    1
 10654  5238  5489    1
 10655  5238  5492    1
 10656  5238  5499    1
 10657  5239  5255   un
 10658  5239  5279   un
 10659  5239  5297   un
 10660  5239  5463    1
 10661  5239  5479    1
 10662  5239  5482    1
 10663  5239  5498    1
 10664  5239  5502   un
 10665  5239  5506   un
 10666  5239  5510   un
 10667  5239  5513   un
 10668  5239  5532   un
 10669  5239  5536    1
 10670  5239  5542    1
 10671  5239  5549    1
 10672  5239  5555    1
 10673  5240  5257   un
 10674  5240  5281   un
 10675  5240  5299   un
 10676  5240  5317   un
 10677  5240  5464    1
 10678  5240  5467    1
 10679  5240  5475    1
 10680  5240  5480    1
 10681  5240  5483    1
 10682  5240  5486    1
 10683  5240  5494    1
 10684  5240  5499    1
 10685  5241  5391   un
 10686  5242  5393   un
 10687  5243  5395   un
 10688  5244  5397   un
 10689  5245  5399   un
 10690  5246  5401   un
 10691  5247  5403   un
 10692  5248  5404   un
 10693  5248  5510   un
 10694  5249  5405   un
 10695  5250  5406   un
 10696  5250  5511   un
 10697  5251  5407   un
 10698  5252  5408   un
 10699  5252  5512   un
 10700  5253  5409   un
 10701  5254  5410   un
 10702  5254  5513   un
 10703  5255  5411   un
 10704  5256  5412   un
 10705  5256  5514   un
 10706  5257  5413   un
 10707  5258  5414   un
 10708  5258  5515   un
 10709  5259  5319   un
 10710  5260  5320   un
 10711  5261  5321   un
 10712  5262  5322   un
 10713  5263  5323   un
 10714  5264  5324   un
 10715  5265  5325   un
 10716  5266  5326   un
 10717  5267  5327   un
 10718  5268  5328   un
 10719  5269  5329   un
 10720  5270  5330   un
 10721  5271  5331   un
 10722  5272  5332   un
 10723  5273  5333   un
 10724  5274  5334   un
 10725  5275  5335   un
 10726  5276  5336   un
 10727  5277  5337   un
 10728  5278  5338   un
 10729  5279  5339   un
 10730  5280  5340   un
 10731  5281  5341   un
 10732  5282  5342   un
 10733  5283  5402   un
 10734  5284  5401   un
 10735  5285  5394   un
 10736  5286  5393   un
 10737  5287  5398   un
 10738  5288  5397   un
 10739  5289  5414   un
 10740  5290  5411   un
 10741  5290  5510   un
 10742  5291  5413   un
 10743  5292  5412   un
 10744  5292  5511   un
 10745  5293  5406   un
 10746  5294  5403   un
 10747  5294  5512   un
 10748  5295  5405   un
 10749  5296  5404   un
 10750  5296  5513   un
 10751  5297  5410   un
 10752  5298  5407   un
 10753  5298  5514   un
 10754  5299  5409   un
 10755  5300  5408   un
 10756  5300  5515   un
 10757  5301  5342   un
 10758  5302  5339   un
 10759  5302  5502   un
 10760  5303  5341   un
 10761  5304  5340   un
 10762  5305  5334   un
 10763  5305  5504   un
 10764  5306  5331   un
 10765  5306  5505   un
 10766  5307  5333   un
 10767  5308  5332   un
 10768  5309  5338   un
 10769  5309  5507   un
 10770  5310  5335   un
 10771  5310  5508   un
 10772  5311  5337   un
 10773  5312  5336   un
 10774  5313  5329   un
 10775  5314  5328   un
 10776  5315  5321   un
 10777  5316  5320   un
 10778  5317  5325   un
 10779  5318  5324   un
 10780  5319  5343   un
 10781  5320  5344   un
 10782  5321  5345   un
 10783  5322  5346   un
 10784  5323  5347   un
 10785  5324  5348   un
 10786  5325  5349   un
 10787  5326  5350   un
 10788  5327  5351   un
 10789  5328  5352   un
 10790  5329  5353   un
 10791  5330  5354   un
 10792  5331  5355   un
 10793  5332  5356   un
 10794  5333  5357   un
 10795  5334  5358   un
 10796  5335  5359   un
 10797  5336  5360   un
 10798  5337  5361   un
 10799  5338  5362   un
 10800  5339  5363   un
 10801  5340  5364   un
 10802  5341  5365   un
 10803  5342  5366   un
 10804  5343  5344   un
 10805  5343  5367    1
 10806  5344  5368    1
 10807  5345  5346   un
 10808  5345  5369    1
 10809  5346  5370    1
 10810  5347  5348   un
 10811  5347  5371    1
 10812  5348  5372    1
 10813  5349  5350   un
 10814  5349  5373    1
 10815  5350  5374    1
 10816  5351  5352   un
 10817  5351  5375    1
 10818  5352  5376    1
 10819  5353  5354   un
 10820  5353  5377    1
 10821  5354  5378    1
 10822  5355  5356   un
 10823  5355  5379    1
 10824  5356  5380    1
 10825  5357  5358   un
 10826  5357  5381    1
 10827  5358  5382    1
 10828  5359  5360   un
 10829  5359  5383    1
 10830  5360  5384    1
 10831  5361  5362   un
 10832  5361  5385    1
 10833  5362  5386    1
 10834  5363  5364   un
 10835  5363  5387    1
 10836  5364  5388    1
 10837  5365  5366   un
 10838  5365  5389    1
 10839  5366  5390    1
 10840  5391  5415   un
 10841  5392  5416   un
 10842  5393  5417   un
 10843  5394  5418   un
 10844  5395  5419   un
 10845  5396  5420   un
 10846  5397  5421   un
 10847  5398  5422   un
 10848  5399  5423   un
 10849  5400  5424   un
 10850  5401  5425   un
 10851  5402  5426   un
 10852  5403  5427   un
 10853  5404  5428   un
 10854  5405  5429   un
 10855  5406  5430   un
 10856  5407  5431   un
 10857  5408  5432   un
 10858  5409  5433   un
 10859  5410  5434   un
 10860  5411  5435   un
 10861  5412  5436   un
 10862  5413  5437   un
 10863  5414  5438   un
 10864  5415  5416   un
 10865  5415  5439    1
 10866  5416  5440    1
 10867  5417  5418   un
 10868  5417  5441    1
 10869  5418  5442    1
 10870  5419  5420   un
 10871  5419  5443    1
 10872  5420  5444    1
 10873  5421  5422   un
 10874  5421  5445    1
 10875  5422  5446    1
 10876  5423  5424   un
 10877  5423  5447    1
 10878  5424  5448    1
 10879  5425  5426   un
 10880  5425  5449    1
 10881  5426  5450    1
 10882  5427  5428   un
 10883  5427  5451    1
 10884  5428  5452    1
 10885  5429  5430   un
 10886  5429  5453    1
 10887  5430  5454    1
 10888  5431  5432   un
 10889  5431  5455    1
 10890  5432  5456    1
 10891  5433  5434   un
 10892  5433  5457    1
 10893  5434  5458    1
 10894  5435  5436   un
 10895  5435  5459    1
 10896  5436  5460    1
 10897  5437  5438   un
 10898  5437  5461    1
 10899  5438  5462    1
 10900  5463  5482    1
 10901  5463  5502    1
 10902  5463  5513    1
 10903  5464  5483    1
 10904  5465  5484    1
 10905  5465  5504    1
 10906  5466  5485    1
 10907  5466  5505    1
 10908  5466  5515    1
 10909  5467  5486    1
 10910  5468  5487    1
 10911  5468  5507    1
 10912  5469  5488    1
 10913  5469  5508    1
 10914  5469  5511    1
 10915  5470  5489    1
 10916  5471  5490    1
 10917  5472  5491    1
 10918  5472  5504    1
 10919  5473  5492    1
 10920  5474  5493    1
 10921  5474  5507    1
 10922  5475  5494    1
 10923  5476  5495    1
 10924  5477  5496    1
 10925  5478  5497    1
 10926  5478  5512    1
 10927  5478  5515    1
 10928  5479  5498    1
 10929  5479  5510    1
 10930  5479  5513    1
 10931  5480  5499    1
 10932  5481  5500    1
 10933  5481  5511    1
 10934  5481  5514    1
 10935  5482  5502    1
 10936  5482  5513    1
 10937  5484  5504    1
 10938  5485  5505    1
 10939  5485  5515    1
 10940  5487  5507    1
 10941  5488  5508    1
 10942  5488  5511    1
 10943  5491  5504    1
 10944  5493  5507    1
 10945  5497  5512    1
 10946  5497  5515    1
 10947  5498  5510    1
 10948  5498  5513    1
 10949  5500  5511    1
 10950  5500  5514    1
 10951  5501  5534    1
 10952  5501  5541    1
 10953  5501  5544    1
 10954  5501  5547    1
 10955  5501  5554    1
 10956  5501  5557    1
 10957  5501  8187   un
 10958  5501  8367    1
 10959  5501  8389    1
 10960  5501  8485   un
 10961  5501  8503   un
 10962  5501  8527   un
 10963  5502  5506   un
 10964  5502  5513   un
 10965  5502  5542    1
 10966  5502  5555    1
 10967  5502  5588   un
 10968  5502  5803    1
 10969  5502  5823    1
 10970  5502  5839   un
 10971  5502  5848   un
 10972  5502  5854   un
 10973  5502  5880    1
 10974  5502  5896    1
 10975  5503  5508   un
 10976  5503  5514   un
 10977  5503  5535    1
 10978  5503  5540    1
 10979  5503  5548    1
 10980  5503  5553    1
 10981  5503  6542   un
 10982  5503  6586    1
 10983  5503  6601    1
 10984  5503  8506   un
 10985  5503  8548   un
 10986  5503  8761   un
 10987  5503  8767   un
 10988  5503  8787    1
 10989  5503  8800    1
 10990  5504  5546    1
 10991  5504  5559    1
 10992  5504  7707    1
 10993  5504  7727    1
 10994  5504  8487   un
 10995  5504  8507   un
 10996  5504  8529   un
 10997  5505  5509   un
 10998  5505  5515   un
 10999  5505  5538    1
 11000  5505  5551    1
 11001  5505  5832   un
 11002  5505  5878    1
 11003  5505  5894    1
 11004  5505  8508   un
 11005  5505  8720    1
 11006  5505  8739    1
 11007  5505  8762   un
 11008  5505  8768   un
 11009  5506  5510   un
 11010  5506  5536    1
 11011  5506  5542    1
 11012  5506  5549    1
 11013  5506  5555    1
 11014  5506  5839   un
 11015  5506  5880    1
 11016  5506  5896    1
 11017  5506  6303   un
 11018  5506  6345   un
 11019  5506  6557   un
 11020  5506  6563   un
 11021  5506  6578    1
 11022  5506  6593    1
 11023  5507  5545    1
 11024  5507  5558    1
 11025  5507  6236    1
 11026  5507  6256    1
 11027  5507  6282   un
 11028  5507  6304   un
 11029  5507  6324   un
 11030  5508  5511   un
 11031  5508  5540    1
 11032  5508  5553    1
 11033  5508  6305   un
 11034  5508  6509    1
 11035  5508  6528    1
 11036  5508  6542   un
 11037  5508  6558   un
 11038  5508  6564   un
 11039  5508  6586    1
 11040  5508  6601    1
 11041  5509  5512   un
 11042  5509  5537    1
 11043  5509  5538    1
 11044  5509  5550    1
 11045  5509  5551    1
 11046  5509  5598   un
 11047  5509  5640   un
 11048  5509  5832   un
 11049  5509  5853   un
 11050  5509  5859   un
 11051  5509  5874    1
 11052  5509  5878    1
 11053  5509  5890    1
 11054  5509  5894    1
 11055  5510  5513   un
 11056  5510  5536    1
 11057  5510  5549    1
 11058  5510  5797    1
 11059  5510  5817    1
 11060  5510  5839   un
 11061  5510  6309   un
 11062  5510  6567   un
 11063  5510  6578    1
 11064  5510  6593    1
 11065  5511  5514   un
 11066  5511  6311   un
 11067  5511  6351   un
 11068  5511  6502    1
 11069  5511  6509    1
 11070  5511  6521    1
 11071  5511  6528    1
 11072  5511  6542   un
 11073  5512  5515   un
 11074  5512  5537    1
 11075  5512  5550    1
 11076  5512  5604   un
 11077  5512  5832   un
 11078  5512  5863   un
 11079  5512  5866    1
 11080  5512  5874    1
 11081  5512  5882    1
 11082  5512  5890    1
 11083  5513  5606   un
 11084  5513  5644   un
 11085  5513  5797    1
 11086  5513  5803    1
 11087  5513  5817    1
 11088  5513  5823    1
 11089  5513  5839   un
 11090  5514  5535    1
 11091  5514  5548    1
 11092  5514  6502    1
 11093  5514  6521    1
 11094  5514  6542   un
 11095  5514  8524   un
 11096  5514  8777   un
 11097  5514  8787    1
 11098  5514  8800    1
 11099  5515  5832   un
 11100  5515  5866    1
 11101  5515  5882    1
 11102  5515  8526   un
 11103  5515  8562   un
 11104  5515  8720    1
 11105  5515  8739    1
 11106  5516  6429   un
 11107  5517  6431   un
 11108  5518  5724   un
 11109  5519  5726   un
 11110  5520  8644   un
 11111  5521  8646   un
 11112  5522  6436   un
 11113  5523  6437   un
 11114  5524  5719   un
 11115  5525  5720   un
 11116  5526  8639   un
 11117  5527  8640   un
 11118  5528  5658   un
 11119  5529  5655   un
 11120  5530  8566   un
 11121  5531  8563   un
 11122  5532  6363   un
 11123  5533  6360   un
 11124  5534  5547    1
 11125  5535  5548    1
 11126  5536  5549    1
 11127  5537  5550    1
 11128  5538  5551    1
 11129  5539  5552    1
 11130  5540  5553    1
 11131  5541  5554    1
 11132  5542  5555    1
 11133  5543  5556    1
 11134  5544  5557    1
 11135  5545  5558    1
 11136  5546  5559    1
 11137  5560  5561   un
 11138  5560  5562   un
 11139  5560  5566   un
 11140  5560  5568   un
 11141  5560  5570   un
 11142  5560  5589   un
 11143  5560  5612   un
 11144  5560  5631   un
 11145  5560  5793    1
 11146  5560  5802    1
 11147  5560  5804    1
 11148  5560  5806    1
 11149  5560  5813    1
 11150  5560  5822    1
 11151  5560  5824    1
 11152  5560  5826    1
 11153  5561  5562   un
 11154  5561  5564   un
 11155  5561  5568   un
 11156  5561  5572   un
 11157  5561  5593   un
 11158  5561  5614   un
 11159  5561  5635   un
 11160  5561  5796    1
 11161  5561  5800    1
 11162  5561  5804    1
 11163  5561  5806    1
 11164  5561  5816    1
 11165  5561  5820    1
 11166  5561  5824    1
 11167  5561  5826    1
 11168  5562  5564   un
 11169  5562  5566   un
 11170  5562  5574   un
 11171  5562  5597   un
 11172  5562  5616   un
 11173  5562  5639   un
 11174  5562  5799    1
 11175  5562  5800    1
 11176  5562  5802    1
 11177  5562  5806    1
 11178  5562  5819    1
 11179  5562  5820    1
 11180  5562  5822    1
 11181  5562  5826    1
 11182  5563  5575   un
 11183  5563  5599   un
 11184  5563  5617   un
 11185  5563  5795    1
 11186  5563  5807    1
 11187  5563  5815    1
 11188  5563  5827    1
 11189  5563  5836   un
 11190  5563  5841   un
 11191  5563  5844   un
 11192  5563  5847   un
 11193  5563  5860   un
 11194  5563  5870    1
 11195  5563  5871    1
 11196  5563  5886    1
 11197  5563  5887    1
 11198  5564  5566   un
 11199  5564  5568   un
 11200  5564  5577   un
 11201  5564  5601   un
 11202  5564  5619   un
 11203  5564  5641   un
 11204  5564  5796    1
 11205  5564  5799    1
 11206  5564  5800    1
 11207  5564  5809    1
 11208  5564  5816    1
 11209  5564  5819    1
 11210  5564  5820    1
 11211  5564  5829    1
 11212  5565  5579   un
 11213  5565  5603   un
 11214  5565  5621   un
 11215  5565  5798    1
 11216  5565  5810    1
 11217  5565  5818    1
 11218  5565  5830    1
 11219  5565  5834   un
 11220  5565  5840   un
 11221  5565  5843   un
 11222  5565  5846   un
 11223  5565  5862   un
 11224  5565  5867    1
 11225  5565  5873    1
 11226  5565  5883    1
 11227  5565  5889    1
 11228  5566  5568   un
 11229  5566  5581   un
 11230  5566  5605   un
 11231  5566  5623   un
 11232  5566  5643   un
 11233  5566  5793    1
 11234  5566  5799    1
 11235  5566  5802    1
 11236  5566  5809    1
 11237  5566  5813    1
 11238  5566  5819    1
 11239  5566  5822    1
 11240  5566  5829    1
 11241  5567  5583   un
 11242  5567  5607   un
 11243  5567  5625   un
 11244  5567  5792    1
 11245  5567  5808    1
 11246  5567  5812    1
 11247  5567  5828    1
 11248  5567  5833   un
 11249  5567  5837   un
 11250  5567  5842   un
 11251  5567  5845   un
 11252  5567  5864   un
 11253  5567  5868    1
 11254  5567  5875    1
 11255  5567  5884    1
 11256  5567  5891    1
 11257  5568  5585   un
 11258  5568  5609   un
 11259  5568  5627   un
 11260  5568  5645   un
 11261  5568  5793    1
 11262  5568  5796    1
 11263  5568  5804    1
 11264  5568  5809    1
 11265  5568  5813    1
 11266  5568  5816    1
 11267  5568  5824    1
 11268  5568  5829    1
 11269  5569  5719   un
 11270  5570  5721   un
 11271  5571  5723   un
 11272  5572  5725   un
 11273  5573  5727   un
 11274  5574  5729   un
 11275  5575  5731   un
 11276  5576  5732   un
 11277  5576  5842   un
 11278  5577  5733   un
 11279  5578  5734   un
 11280  5578  5843   un
 11281  5579  5735   un
 11282  5580  5736   un
 11283  5580  5844   un
 11284  5581  5737   un
 11285  5582  5738   un
 11286  5582  5845   un
 11287  5583  5739   un
 11288  5584  5740   un
 11289  5584  5846   un
 11290  5585  5741   un
 11291  5586  5742   un
 11292  5586  5847   un
 11293  5587  5647   un
 11294  5588  5648   un
 11295  5589  5649   un
 11296  5590  5650   un
 11297  5591  5651   un
 11298  5592  5652   un
 11299  5593  5653   un
 11300  5594  5654   un
 11301  5595  5655   un
 11302  5596  5656   un
 11303  5597  5657   un
 11304  5598  5658   un
 11305  5599  5659   un
 11306  5600  5660   un
 11307  5601  5661   un
 11308  5602  5662   un
 11309  5603  5663   un
 11310  5604  5664   un
 11311  5605  5665   un
 11312  5606  5666   un
 11313  5607  5667   un
 11314  5608  5668   un
 11315  5609  5669   un
 11316  5610  5670   un
 11317  5611  5730   un
 11318  5612  5729   un
 11319  5613  5722   un
 11320  5614  5721   un
 11321  5615  5726   un
 11322  5616  5725   un
 11323  5617  5742   un
 11324  5618  5739   un
 11325  5618  5842   un
 11326  5619  5741   un
 11327  5620  5740   un
 11328  5620  5843   un
 11329  5621  5734   un
 11330  5622  5731   un
 11331  5622  5844   un
 11332  5623  5733   un
 11333  5624  5732   un
 11334  5624  5845   un
 11335  5625  5738   un
 11336  5626  5735   un
 11337  5626  5846   un
 11338  5627  5737   un
 11339  5628  5736   un
 11340  5628  5847   un
 11341  5629  5670   un
 11342  5629  5831   un
 11343  5630  5667   un
 11344  5630  5833   un
 11345  5631  5669   un
 11346  5632  5668   un
 11347  5633  5662   un
 11348  5633  5835   un
 11349  5634  5659   un
 11350  5634  5836   un
 11351  5635  5661   un
 11352  5636  5660   un
 11353  5637  5666   un
 11354  5637  5839   un
 11355  5638  5663   un
 11356  5638  5840   un
 11357  5639  5665   un
 11358  5640  5664   un
 11359  5641  5657   un
 11360  5642  5656   un
 11361  5643  5649   un
 11362  5644  5648   un
 11363  5645  5653   un
 11364  5646  5652   un
 11365  5647  5671   un
 11366  5648  5672   un
 11367  5649  5673   un
 11368  5650  5674   un
 11369  5651  5675   un
 11370  5652  5676   un
 11371  5653  5677   un
 11372  5654  5678   un
 11373  5655  5679   un
 11374  5656  5680   un
 11375  5657  5681   un
 11376  5658  5682   un
 11377  5659  5683   un
 11378  5660  5684   un
 11379  5661  5685   un
 11380  5662  5686   un
 11381  5663  5687   un
 11382  5664  5688   un
 11383  5665  5689   un
 11384  5666  5690   un
 11385  5667  5691   un
 11386  5668  5692   un
 11387  5669  5693   un
 11388  5670  5694   un
 11389  5671  5672   un
 11390  5671  5695    1
 11391  5672  5696    1
 11392  5673  5674   un
 11393  5673  5697    1
 11394  5674  5698    1
 11395  5675  5676   un
 11396  5675  5699    1
 11397  5676  5700    1
 11398  5677  5678   un
 11399  5677  5701    1
 11400  5678  5702    1
 11401  5679  5680   un
 11402  5679  5703    1
 11403  5680  5704    1
 11404  5681  5682   un
 11405  5681  5705    1
 11406  5682  5706    1
 11407  5683  5684   un
 11408  5683  5707    1
 11409  5684  5708    1
 11410  5685  5686   un
 11411  5685  5709    1
 11412  5686  5710    1
 11413  5687  5688   un
 11414  5687  5711    1
 11415  5688  5712    1
 11416  5689  5690   un
 11417  5689  5713    1
 11418  5690  5714    1
 11419  5691  5692   un
 11420  5691  5715    1
 11421  5692  5716    1
 11422  5693  5694   un
 11423  5693  5717    1
 11424  5694  5718    1
 11425  5719  5743   un
 11426  5720  5744   un
 11427  5721  5745   un
 11428  5722  5746   un
 11429  5723  5747   un
 11430  5724  5748   un
 11431  5725  5749   un
 11432  5726  5750   un
 11433  5727  5751   un
 11434  5728  5752   un
 11435  5729  5753   un
 11436  5730  5754   un
 11437  5731  5755   un
 11438  5732  5756   un
 11439  5733  5757   un
 11440  5734  5758   un
 11441  5735  5759   un
 11442  5736  5760   un
 11443  5737  5761   un
 11444  5738  5762   un
 11445  5739  5763   un
 11446  5740  5764   un
 11447  5741  5765   un
 11448  5742  5766   un
 11449  5743  5744   un
 11450  5743  5767    1
 11451  5744  5768    1
 11452  5745  5746   un
 11453  5745  5769    1
 11454  5746  5770    1
 11455  5747  5748   un
 11456  5747  5771    1
 11457  5748  5772    1
 11458  5749  5750   un
 11459  5749  5773    1
 11460  5750  5774    1
 11461  5751  5752   un
 11462  5751  5775    1
 11463  5752  5776    1
 11464  5753  5754   un
 11465  5753  5777    1
 11466  5754  5778    1
 11467  5755  5756   un
 11468  5755  5779    1
 11469  5756  5780    1
 11470  5757  5758   un
 11471  5757  5781    1
 11472  5758  5782    1
 11473  5759  5760   un
 11474  5759  5783    1
 11475  5760  5784    1
 11476  5761  5762   un
 11477  5761  5785    1
 11478  5762  5786    1
 11479  5763  5764   un
 11480  5763  5787    1
 11481  5764  5788    1
 11482  5765  5766   un
 11483  5765  5789    1
 11484  5766  5790    1
 11485  5791  5811    1
 11486  5791  5831    1
 11487  5792  5812    1
 11488  5792  5833    1
 11489  5792  5845    1
 11490  5793  5813    1
 11491  5794  5814    1
 11492  5794  5835    1
 11493  5795  5815    1
 11494  5795  5836    1
 11495  5795  5847    1
 11496  5796  5816    1
 11497  5797  5817    1
 11498  5797  5839    1
 11499  5798  5818    1
 11500  5798  5840    1
 11501  5798  5843    1
 11502  5799  5819    1
 11503  5800  5820    1
 11504  5801  5821    1
 11505  5801  5835    1
 11506  5802  5822    1
 11507  5803  5823    1
 11508  5803  5839    1
 11509  5804  5824    1
 11510  5805  5825    1
 11511  5805  5831    1
 11512  5806  5826    1
 11513  5807  5827    1
 11514  5807  5844    1
 11515  5807  5847    1
 11516  5808  5828    1
 11517  5808  5842    1
 11518  5808  5845    1
 11519  5809  5829    1
 11520  5810  5830    1
 11521  5810  5843    1
 11522  5810  5846    1
 11523  5811  5831    1
 11524  5812  5833    1
 11525  5812  5845    1
 11526  5814  5835    1
 11527  5815  5836    1
 11528  5815  5847    1
 11529  5817  5839    1
 11530  5818  5840    1
 11531  5818  5843    1
 11532  5821  5835    1
 11533  5823  5839    1
 11534  5825  5831    1
 11535  5827  5844    1
 11536  5827  5847    1
 11537  5828  5842    1
 11538  5828  5845    1
 11539  5830  5843    1
 11540  5830  5846    1
 11541  5831  5877    1
 11542  5831  5893    1
 11543  5832  5866    1
 11544  5832  5874    1
 11545  5832  5878    1
 11546  5832  5882    1
 11547  5832  5890    1
 11548  5832  5894    1
 11549  5832  8545   un
 11550  5832  8720    1
 11551  5832  8739    1
 11552  5832  8813   un
 11553  5832  8831   un
 11554  5832  8855   un
 11555  5833  5837   un
 11556  5833  5845   un
 11557  5833  5875    1
 11558  5833  5891    1
 11559  5833  6881   un
 11560  5833  6923    1
 11561  5833  6941    1
 11562  5834  5840   un
 11563  5834  5846   un
 11564  5834  5867    1
 11565  5834  5873    1
 11566  5834  5883    1
 11567  5834  5889    1
 11568  5834  6878   un
 11569  5834  6926    1
 11570  5834  6944    1
 11571  5834  8834   un
 11572  5834  8876   un
 11573  5834  9093   un
 11574  5834  9099   un
 11575  5834  9120    1
 11576  5834  9136    1
 11577  5835  5881    1
 11578  5835  5897    1
 11579  5835  8081    1
 11580  5835  8102    1
 11581  5835  8815   un
 11582  5835  8835   un
 11583  5835  8857   un
 11584  5836  5841   un
 11585  5836  5847   un
 11586  5836  5871    1
 11587  5836  5887    1
 11588  5836  8836   un
 11589  5836  9049    1
 11590  5836  9069    1
 11591  5836  9075   un
 11592  5836  9094   un
 11593  5836  9100   un
 11594  5836  9121    1
 11595  5836  9137    1
 11596  5837  5842   un
 11597  5837  5868    1
 11598  5837  5875    1
 11599  5837  5884    1
 11600  5837  5891    1
 11601  5837  6636   un
 11602  5837  6678   un
 11603  5837  6881   un
 11604  5837  6894   un
 11605  5837  6900   un
 11606  5837  6916    1
 11607  5837  6923    1
 11608  5837  6934    1
 11609  5837  6941    1
 11610  5838  5869    1
 11611  5838  5872    1
 11612  5838  5879    1
 11613  5838  5885    1
 11614  5838  5888    1
 11615  5838  5895    1
 11616  5839  5880    1
 11617  5839  5896    1
 11618  5839  6578    1
 11619  5839  6593    1
 11620  5839  6615   un
 11621  5839  6637   un
 11622  5839  6657   un
 11623  5840  5843   un
 11624  5840  5873    1
 11625  5840  5889    1
 11626  5840  6638   un
 11627  5840  6843    1
 11628  5840  6863    1
 11629  5840  6878   un
 11630  5840  6895   un
 11631  5840  6901   un
 11632  5840  6926    1
 11633  5840  6944    1
 11634  5841  5844   un
 11635  5841  5870    1
 11636  5841  5871    1
 11637  5841  5886    1
 11638  5841  5887    1
 11639  5841  9075   un
 11640  5841  9121    1
 11641  5841  9137    1
 11642  5842  5845   un
 11643  5842  5868    1
 11644  5842  5884    1
 11645  5842  6642   un
 11646  5842  6881   un
 11647  5842  6904   un
 11648  5842  6913    1
 11649  5842  6916    1
 11650  5842  6931    1
 11651  5842  6934    1
 11652  5843  5846   un
 11653  5843  6644   un
 11654  5843  6684   un
 11655  5843  6836    1
 11656  5843  6843    1
 11657  5843  6856    1
 11658  5843  6863    1
 11659  5843  6878   un
 11660  5844  5847   un
 11661  5844  5870    1
 11662  5844  5886    1
 11663  5844  9035    1
 11664  5844  9055    1
 11665  5844  9075   un
 11666  5845  6881   un
 11667  5845  6913    1
 11668  5845  6931    1
 11669  5846  5867    1
 11670  5846  5883    1
 11671  5846  6836    1
 11672  5846  6856    1
 11673  5846  6878   un
 11674  5846  8852   un
 11675  5846  9109   un
 11676  5846  9120    1
 11677  5846  9136    1
 11678  5847  8854   un
 11679  5847  8890   un
 11680  5847  9035    1
 11681  5847  9049    1
 11682  5847  9055    1
 11683  5847  9069    1
 11684  5847  9075   un
 11685  5848  6762   un
 11686  5849  6764   un
 11687  5852  8972   un
 11688  5853  8974   un
 11689  5854  6769   un
 11690  5855  6770   un
 11691  5858  8967   un
 11692  5859  8968   un
 11693  5862  8894   un
 11694  5863  8891   un
 11695  5864  6696   un
 11696  5865  6693   un
 11697  5866  5882    1
 11698  5867  5883    1
 11699  5868  5884    1
 11700  5869  5885    1
 11701  5870  5886    1
 11702  5871  5887    1
 11703  5872  5888    1
 11704  5873  5889    1
 11705  5874  5890    1
 11706  5875  5891    1
 11707  5876  5892    1
 11708  5877  5893    1
 11709  5878  5894    1
 11710  5879  5895    1
 11711  5880  5896    1
 11712  5881  5897    1
 11713  5898  5908   un
 11714  5898  5932   un
 11715  5898  6153    1
 11716  5898  6175    1
 11717  5898  6190   un
 11718  5898  6192   un
 11719  5898  6201   un
 11720  5898  6205   un
 11721  5898  6213   un
 11722  5898  6222   un
 11723  5898  6230    1
 11724  5898  6239    1
 11725  5898  6244    1
 11726  5898  6250    1
 11727  5898  6259    1
 11728  5898  6264    1
 11729  5899  5900   un
 11730  5899  5901   un
 11731  5899  5907   un
 11732  5899  5910   un
 11733  5899  5912   un
 11734  5899  5933   un
 11735  5899  5956   un
 11736  5899  5977   un
 11737  5899  6140    1
 11738  5899  6152    1
 11739  5899  6154    1
 11740  5899  6156    1
 11741  5899  6162    1
 11742  5899  6174    1
 11743  5899  6176    1
 11744  5899  6178    1
 11745  5900  5901   un
 11746  5900  5904   un
 11747  5900  5910   un
 11748  5900  5915   un
 11749  5900  5937   un
 11750  5900  5959   un
 11751  5900  5981   un
 11752  5900  6143    1
 11753  5900  6150    1
 11754  5900  6154    1
 11755  5900  6156    1
 11756  5900  6165    1
 11757  5900  6172    1
 11758  5900  6176    1
 11759  5900  6178    1
 11760  5901  5904   un
 11761  5901  5907   un
 11762  5901  5918   un
 11763  5901  5941   un
 11764  5901  5962   un
 11765  5901  5985   un
 11766  5901  6146    1
 11767  5901  6150    1
 11768  5901  6152    1
 11769  5901  6156    1
 11770  5901  6168    1
 11771  5901  6172    1
 11772  5901  6174    1
 11773  5901  6178    1
 11774  5902  5906   un
 11775  5902  5942   un
 11776  5902  5986   un
 11777  5902  6147    1
 11778  5902  6148    1
 11779  5902  6169    1
 11780  5902  6170    1
 11781  5902  6183   un
 11782  5902  6188   un
 11783  5902  6195   un
 11784  5902  6210   un
 11785  5902  6218   un
 11786  5902  6238    1
 11787  5902  6243    1
 11788  5902  6258    1
 11789  5902  6263    1
 11790  5903  5919   un
 11791  5903  5943   un
 11792  5903  5963   un
 11793  5903  6142    1
 11794  5903  6157    1
 11795  5903  6164    1
 11796  5903  6179    1
 11797  5903  6189   un
 11798  5903  6194   un
 11799  5903  6199   un
 11800  5903  6204   un
 11801  5903  6223   un
 11802  5903  6234    1
 11803  5903  6235    1
 11804  5903  6254    1
 11805  5903  6255    1
 11806  5904  5907   un
 11807  5904  5910   un
 11808  5904  5921   un
 11809  5904  5945   un
 11810  5904  5965   un
 11811  5904  5989   un
 11812  5904  6143    1
 11813  5904  6146    1
 11814  5904  6150    1
 11815  5904  6159    1
 11816  5904  6165    1
 11817  5904  6168    1
 11818  5904  6172    1
 11819  5904  6181    1
 11820  5905  5923   un
 11821  5905  5947   un
 11822  5905  5967   un
 11823  5905  6145    1
 11824  5905  6160    1
 11825  5905  6167    1
 11826  5905  6182    1
 11827  5905  6185   un
 11828  5905  6193   un
 11829  5905  6198   un
 11830  5905  6202   un
 11831  5905  6225   un
 11832  5905  6231    1
 11833  5905  6237    1
 11834  5905  6251    1
 11835  5905  6257    1
 11836  5906  5948   un
 11837  5906  6147    1
 11838  5906  6169    1
 11839  5906  6183   un
 11840  5906  6195   un
 11841  5906  6203   un
 11842  5906  6211   un
 11843  5906  6219   un
 11844  5906  6226   un
 11845  5906  6229    1
 11846  5906  6238    1
 11847  5906  6247    1
 11848  5906  6249    1
 11849  5906  6258    1
 11850  5906  6267    1
 11851  5907  5910   un
 11852  5907  5925   un
 11853  5907  5949   un
 11854  5907  5969   un
 11855  5907  5991   un
 11856  5907  6140    1
 11857  5907  6146    1
 11858  5907  6152    1
 11859  5907  6159    1
 11860  5907  6162    1
 11861  5907  6168    1
 11862  5907  6174    1
 11863  5907  6181    1
 11864  5908  5950   un
 11865  5908  5992   un
 11866  5908  6144    1
 11867  5908  6153    1
 11868  5908  6166    1
 11869  5908  6175    1
 11870  5908  6192   un
 11871  5908  6196   un
 11872  5908  6201   un
 11873  5908  6212   un
 11874  5908  6220   un
 11875  5908  6230    1
 11876  5908  6248    1
 11877  5908  6250    1
 11878  5908  6268    1
 11879  5909  5927   un
 11880  5909  5951   un
 11881  5909  5971   un
 11882  5909  6139    1
 11883  5909  6158    1
 11884  5909  6161    1
 11885  5909  6180    1
 11886  5909  6184   un
 11887  5909  6191   un
 11888  5909  6197   un
 11889  5909  6200   un
 11890  5909  6227   un
 11891  5909  6233    1
 11892  5909  6240    1
 11893  5909  6253    1
 11894  5909  6260    1
 11895  5910  5929   un
 11896  5910  5953   un
 11897  5910  5973   un
 11898  5910  5993   un
 11899  5910  6140    1
 11900  5910  6143    1
 11901  5910  6154    1
 11902  5910  6159    1
 11903  5910  6162    1
 11904  5910  6165    1
 11905  5910  6176    1
 11906  5910  6181    1
 11907  5911  6067   un
 11908  5912  6069   un
 11909  5913  6071   un
 11910  5914  6072   un
 11911  5915  6073   un
 11912  5916  6074   un
 11913  5917  6075   un
 11914  5918  6077   un
 11915  5919  6079   un
 11916  5920  6080   un
 11917  5920  6197   un
 11918  5921  6081   un
 11919  5922  6082   un
 11920  5922  6198   un
 11921  5923  6083   un
 11922  5924  6084   un
 11923  5924  6199   un
 11924  5925  6085   un
 11925  5926  6086   un
 11926  5926  6200   un
 11927  5927  6087   un
 11928  5928  6088   un
 11929  5928  6202   un
 11930  5929  6089   un
 11931  5930  6090   un
 11932  5930  6204   un
 11933  5931  5995   un
 11934  5932  5996   un
 11935  5933  5997   un
 11936  5934  5998   un
 11937  5935  5999   un
 11938  5936  6000   un
 11939  5937  6001   un
 11940  5938  6002   un
 11941  5939  6003   un
 11942  5940  6004   un
 11943  5941  6005   un
 11944  5942  6006   un
 11945  5943  6007   un
 11946  5944  6008   un
 11947  5945  6009   un
 11948  5946  6010   un
 11949  5947  6011   un
 11950  5948  6012   un
 11951  5949  6013   un
 11952  5950  6014   un
 11953  5951  6015   un
 11954  5952  6016   un
 11955  5953  6017   un
 11956  5954  6018   un
 11957  5955  6078   un
 11958  5956  6077   un
 11959  5957  6070   un
 11960  5958  6067   un
 11961  5959  6069   un
 11962  5960  6068   un
 11963  5961  6074   un
 11964  5962  6073   un
 11965  5963  6090   un
 11966  5964  6087   un
 11967  5964  6197   un
 11968  5965  6089   un
 11969  5966  6088   un
 11970  5966  6198   un
 11971  5967  6082   un
 11972  5968  6079   un
 11973  5968  6199   un
 11974  5969  6081   un
 11975  5970  6080   un
 11976  5970  6200   un
 11977  5971  6086   un
 11978  5972  6083   un
 11979  5972  6202   un
 11980  5973  6085   un
 11981  5974  6084   un
 11982  5974  6204   un
 11983  5975  6018   un
 11984  5976  6015   un
 11985  5976  6184   un
 11986  5977  6017   un
 11987  5978  6016   un
 11988  5979  6010   un
 11989  5979  6187   un
 11990  5980  6007   un
 11991  5980  6189   un
 11992  5981  6009   un
 11993  5982  6008   un
 11994  5983  6014   un
 11995  5983  6192   un
 11996  5984  6011   un
 11997  5984  6193   un
 11998  5985  6013   un
 11999  5986  6012   un
 12000  5987  6006   un
 12001  5987  6195   un
 12002  5988  6003   un
 12003  5989  6005   un
 12004  5990  6004   un
 12005  5991  5997   un
 12006  5992  5996   un
 12007  5993  6001   un
 12008  5994  6000   un
 12009  5995  6019   un
 12010  5996  6020   un
 12011  5997  6021   un
 12012  5998  6022   un
 12013  5999  6023   un
 12014  6000  6024   un
 12015  6001  6025   un
 12016  6002  6026   un
 12017  6003  6027   un
 12018  6004  6028   un
 12019  6005  6029   un
 12020  6006  6030   un
 12021  6007  6031   un
 12022  6008  6032   un
 12023  6009  6033   un
 12024  6010  6034   un
 12025  6011  6035   un
 12026  6012  6036   un
 12027  6013  6037   un
 12028  6014  6038   un
 12029  6015  6039   un
 12030  6016  6040   un
 12031  6017  6041   un
 12032  6018  6042   un
 12033  6019  6020   un
 12034  6019  6043    1
 12035  6020  6044    1
 12036  6021  6022   un
 12037  6021  6045    1
 12038  6022  6046    1
 12039  6023  6024   un
 12040  6023  6047    1
 12041  6024  6048    1
 12042  6025  6026   un
 12043  6025  6049    1
 12044  6026  6050    1
 12045  6027  6028   un
 12046  6027  6051    1
 12047  6028  6052    1
 12048  6029  6030   un
 12049  6029  6053    1
 12050  6030  6054    1
 12051  6031  6032   un
 12052  6031  6055    1
 12053  6032  6056    1
 12054  6033  6034   un
 12055  6033  6057    1
 12056  6034  6058    1
 12057  6035  6036   un
 12058  6035  6059    1
 12059  6036  6060    1
 12060  6037  6038   un
 12061  6037  6061    1
 12062  6038  6062    1
 12063  6039  6040   un
 12064  6039  6063    1
 12065  6040  6064    1
 12066  6041  6042   un
 12067  6041  6065    1
 12068  6042  6066    1
 12069  6067  6091   un
 12070  6068  6092   un
 12071  6069  6093   un
 12072  6070  6094   un
 12073  6071  6095   un
 12074  6072  6096   un
 12075  6073  6097   un
 12076  6074  6098   un
 12077  6075  6099   un
 12078  6076  6100   un
 12079  6077  6101   un
 12080  6078  6102   un
 12081  6079  6103   un
 12082  6080  6104   un
 12083  6081  6105   un
 12084  6082  6106   un
 12085  6083  6107   un
 12086  6084  6108   un
 12087  6085  6109   un
 12088  6086  6110   un
 12089  6087  6111   un
 12090  6088  6112   un
 12091  6089  6113   un
 12092  6090  6114   un
 12093  6091  6092   un
 12094  6091  6115    1
 12095  6092  6116    1
 12096  6093  6094   un
 12097  6093  6117    1
 12098  6094  6118    1
 12099  6095  6096   un
 12100  6095  6119    1
 12101  6096  6120    1
 12102  6097  6098   un
 12103  6097  6121    1
 12104  6098  6122    1
 12105  6099  6100   un
 12106  6099  6123    1
 12107  6100  6124    1
 12108  6101  6102   un
 12109  6101  6125    1
 12110  6102  6126    1
 12111  6103  6104   un
 12112  6103  6127    1
 12113  6104  6128    1
 12114  6105  6106   un
 12115  6105  6129    1
 12116  6106  6130    1
 12117  6107  6108   un
 12118  6107  6131    1
 12119  6108  6132    1
 12120  6109  6110   un
 12121  6109  6133    1
 12122  6110  6134    1
 12123  6111  6112   un
 12124  6111  6135    1
 12125  6112  6136    1
 12126  6113  6114   un
 12127  6113  6137    1
 12128  6114  6138    1
 12129  6139  6161    1
 12130  6139  6184    1
 12131  6139  6200    1
 12132  6140  6162    1
 12133  6141  6163    1
 12134  6141  6187    1
 12135  6142  6164    1
 12136  6142  6189    1
 12137  6142  6204    1
 12138  6143  6165    1
 12139  6144  6166    1
 12140  6144  6192    1
 12141  6144  6196    1
 12142  6145  6167    1
 12143  6145  6193    1
 12144  6145  6198    1
 12145  6146  6168    1
 12146  6147  6169    1
 12147  6147  6195    1
 12148  6148  6170    1
 12149  6148  6188    1
 12150  6148  6195    1
 12151  6149  6171    1
 12152  6150  6172    1
 12153  6151  6173    1
 12154  6151  6187    1
 12155  6152  6174    1
 12156  6153  6175    1
 12157  6153  6192    1
 12158  6154  6176    1
 12159  6155  6177    1
 12160  6156  6178    1
 12161  6157  6179    1
 12162  6157  6199    1
 12163  6157  6204    1
 12164  6158  6180    1
 12165  6158  6197    1
 12166  6158  6200    1
 12167  6159  6181    1
 12168  6160  6182    1
 12169  6160  6198    1
 12170  6160  6202    1
 12171  6161  6184    1
 12172  6161  6200    1
 12173  6163  6187    1
 12174  6164  6189    1
 12175  6164  6204    1
 12176  6166  6192    1
 12177  6166  6196    1
 12178  6167  6193    1
 12179  6167  6198    1
 12180  6169  6195    1
 12181  6170  6188    1
 12182  6170  6195    1
 12183  6173  6187    1
 12184  6175  6192    1
 12185  6179  6199    1
 12186  6179  6204    1
 12187  6180  6197    1
 12188  6180  6200    1
 12189  6182  6198    1
 12190  6182  6202    1
 12191  6183  6188   un
 12192  6183  6203   un
 12193  6183  6229    1
 12194  6183  6238    1
 12195  6183  6243    1
 12196  6183  6249    1
 12197  6183  6258    1
 12198  6183  6263    1
 12199  6183  9155   un
 12200  6183  9175   un
 12201  6183  9199   un
 12202  6183  9465   un
 12203  6183  9486    1
 12204  6183  9506    1
 12205  6184  6191   un
 12206  6184  6200   un
 12207  6184  6240    1
 12208  6184  6260    1
 12209  6184  6297   un
 12210  6184  6511    1
 12211  6184  6530    1
 12212  6184  6545   un
 12213  6184  6554   un
 12214  6184  6560   un
 12215  6184  6584    1
 12216  6184  6599    1
 12217  6185  6193   un
 12218  6185  6202   un
 12219  6185  6231    1
 12220  6185  6237    1
 12221  6185  6251    1
 12222  6185  6257    1
 12223  6185  9178   un
 12224  6185  9222   un
 12225  6185  9430   un
 12226  6185  9450   un
 12227  6185  9458   un
 12228  6185  9485    1
 12229  6185  9489    1
 12230  6185  9505    1
 12231  6185  9509    1
 12232  6186  6232    1
 12233  6186  6241    1
 12234  6186  6245    1
 12235  6186  6252    1
 12236  6186  6261    1
 12237  6186  6265    1
 12238  6187  6246    1
 12239  6187  6266    1
 12240  6187  8451    1
 12241  6187  8469    1
 12242  6187  9157   un
 12243  6187  9179   un
 12244  6187  9201   un
 12245  6188  6195   un
 12246  6188  6203   un
 12247  6188  6243    1
 12248  6188  6263    1
 12249  6188  9158   un
 12250  6188  9202   un
 12251  6188  9486    1
 12252  6188  9506    1
 12253  6189  6194   un
 12254  6189  6204   un
 12255  6189  6235    1
 12256  6189  6255    1
 12257  6189  6538   un
 12258  6189  6583    1
 12259  6189  6598    1
 12260  6189  9180   un
 12261  6189  9399    1
 12262  6189  9421    1
 12263  6189  9451   un
 12264  6189  9459   un
 12265  6190  6192   un
 12266  6190  6196   un
 12267  6190  6201   un
 12268  6190  6239    1
 12269  6190  6244    1
 12270  6190  6259    1
 12271  6190  6264    1
 12272  6191  6197   un
 12273  6191  6233    1
 12274  6191  6240    1
 12275  6191  6253    1
 12276  6191  6260    1
 12277  6191  6545   un
 12278  6191  6584    1
 12279  6191  6599    1
 12280  6192  6196   un
 12281  6192  6244    1
 12282  6192  6264    1
 12283  6193  6198   un
 12284  6193  6237    1
 12285  6193  6257    1
 12286  6193  9430   un
 12287  6193  9489    1
 12288  6193  9509    1
 12289  6194  6199   un
 12290  6194  6234    1
 12291  6194  6235    1
 12292  6194  6254    1
 12293  6194  6255    1
 12294  6194  6307   un
 12295  6194  6349   un
 12296  6194  6538   un
 12297  6194  6559   un
 12298  6194  6565   un
 12299  6194  6580    1
 12300  6194  6583    1
 12301  6194  6595    1
 12302  6194  6598    1
 12303  6195  6203   un
 12304  6195  6247    1
 12305  6195  6267    1
 12306  6196  6201   un
 12307  6196  6248    1
 12308  6196  6268    1
 12309  6197  6200   un
 12310  6197  6233    1
 12311  6197  6253    1
 12312  6197  6505    1
 12313  6197  6524    1
 12314  6197  6545   un
 12315  6198  6202   un
 12316  6198  9430   un
 12317  6198  9476    1
 12318  6198  9496    1
 12319  6199  6204   un
 12320  6199  6234    1
 12321  6199  6254    1
 12322  6199  6313   un
 12323  6199  6538   un
 12324  6199  6569   un
 12325  6199  6572    1
 12326  6199  6580    1
 12327  6199  6587    1
 12328  6199  6595    1
 12329  6200  6315   un
 12330  6200  6353   un
 12331  6200  6505    1
 12332  6200  6511    1
 12333  6200  6524    1
 12334  6200  6530    1
 12335  6200  6545   un
 12336  6201  6230    1
 12337  6201  6239    1
 12338  6201  6248    1
 12339  6201  6250    1
 12340  6201  6259    1
 12341  6201  6268    1
 12342  6202  6231    1
 12343  6202  6251    1
 12344  6202  9196   un
 12345  6202  9430   un
 12346  6202  9472   un
 12347  6202  9476    1
 12348  6202  9485    1
 12349  6202  9496    1
 12350  6202  9505    1
 12351  6203  6229    1
 12352  6203  6247    1
 12353  6203  6249    1
 12354  6203  6267    1
 12355  6203  9486    1
 12356  6203  9506    1
 12357  6204  6538   un
 12358  6204  6572    1
 12359  6204  6587    1
 12360  6204  9198   un
 12361  6204  9238   un
 12362  6204  9399    1
 12363  6204  9421    1
 12364  6207  6433   un
 12365  6208  6435   un
 12366  6209  9320   un
 12367  6210  9322   un
 12368  6215  6428   un
 12369  6216  6429   un
 12370  6217  9315   un
 12371  6218  9316   un
 12372  6223  6367   un
 12373  6224  6364   un
 12374  6225  9242   un
 12375  6226  9239   un
 12376  6229  6249    1
 12377  6230  6250    1
 12378  6231  6251    1
 12379  6232  6252    1
 12380  6233  6253    1
 12381  6234  6254    1
 12382  6235  6255    1
 12383  6236  6256    1
 12384  6237  6257    1
 12385  6238  6258    1
 12386  6239  6259    1
 12387  6240  6260    1
 12388  6241  6261    1
 12389  6242  6262    1
 12390  6243  6263    1
 12391  6244  6264    1
 12392  6245  6265    1
 12393  6246  6266    1
 12394  6247  6267    1
 12395  6248  6268    1
 12396  6269  6270   un
 12397  6269  6271   un
 12398  6269  6275   un
 12399  6269  6277   un
 12400  6269  6279   un
 12401  6269  6298   un
 12402  6269  6321   un
 12403  6269  6340   un
 12404  6269  6501    1
 12405  6269  6510    1
 12406  6269  6512    1
 12407  6269  6514    1
 12408  6269  6520    1
 12409  6269  6529    1
 12410  6269  6531    1
 12411  6269  6533    1
 12412  6270  6271   un
 12413  6270  6273   un
 12414  6270  6277   un
 12415  6270  6281   un
 12416  6270  6302   un
 12417  6270  6323   un
 12418  6270  6344   un
 12419  6270  6504    1
 12420  6270  6508    1
 12421  6270  6512    1
 12422  6270  6514    1
 12423  6270  6523    1
 12424  6270  6527    1
 12425  6270  6531    1
 12426  6270  6533    1
 12427  6271  6273   un
 12428  6271  6275   un
 12429  6271  6283   un
 12430  6271  6306   un
 12431  6271  6325   un
 12432  6271  6348   un
 12433  6271  6507    1
 12434  6271  6508    1
 12435  6271  6510    1
 12436  6271  6514    1
 12437  6271  6526    1
 12438  6271  6527    1
 12439  6271  6529    1
 12440  6271  6533    1
 12441  6272  6284   un
 12442  6272  6308   un
 12443  6272  6326   un
 12444  6272  6503    1
 12445  6272  6515    1
 12446  6272  6522    1
 12447  6272  6534    1
 12448  6272  6543   un
 12449  6272  6547   un
 12450  6272  6550   un
 12451  6272  6553   un
 12452  6272  6566   un
 12453  6272  6576    1
 12454  6272  6577    1
 12455  6272  6591    1
 12456  6272  6592    1
 12457  6273  6275   un
 12458  6273  6277   un
 12459  6273  6286   un
 12460  6273  6310   un
 12461  6273  6328   un
 12462  6273  6350   un
 12463  6273  6504    1
 12464  6273  6507    1
 12465  6273  6508    1
 12466  6273  6517    1
 12467  6273  6523    1
 12468  6273  6526    1
 12469  6273  6527    1
 12470  6273  6536    1
 12471  6274  6288   un
 12472  6274  6312   un
 12473  6274  6330   un
 12474  6274  6506    1
 12475  6274  6518    1
 12476  6274  6525    1
 12477  6274  6537    1
 12478  6274  6540   un
 12479  6274  6546   un
 12480  6274  6549   un
 12481  6274  6552   un
 12482  6274  6568   un
 12483  6274  6573    1
 12484  6274  6579    1
 12485  6274  6588    1
 12486  6274  6594    1
 12487  6275  6277   un
 12488  6275  6290   un
 12489  6275  6314   un
 12490  6275  6332   un
 12491  6275  6352   un
 12492  6275  6501    1
 12493  6275  6507    1
 12494  6275  6510    1
 12495  6275  6517    1
 12496  6275  6520    1
 12497  6275  6526    1
 12498  6275  6529    1
 12499  6275  6536    1
 12500  6276  6292   un
 12501  6276  6316   un
 12502  6276  6334   un
 12503  6276  6500    1
 12504  6276  6516    1
 12505  6276  6519    1
 12506  6276  6535    1
 12507  6276  6539   un
 12508  6276  6544   un
 12509  6276  6548   un
 12510  6276  6551   un
 12511  6276  6570   un
 12512  6276  6575    1
 12513  6276  6581    1
 12514  6276  6590    1
 12515  6276  6596    1
 12516  6277  6294   un
 12517  6277  6318   un
 12518  6277  6336   un
 12519  6277  6354   un
 12520  6277  6501    1
 12521  6277  6504    1
 12522  6277  6512    1
 12523  6277  6517    1
 12524  6277  6520    1
 12525  6277  6523    1
 12526  6277  6531    1
 12527  6277  6536    1
 12528  6278  6428   un
 12529  6279  6430   un
 12530  6280  6432   un
 12531  6281  6434   un
 12532  6282  6436   un
 12533  6283  6438   un
 12534  6284  6440   un
 12535  6285  6441   un
 12536  6285  6548   un
 12537  6286  6442   un
 12538  6287  6443   un
 12539  6287  6549   un
 12540  6288  6444   un
 12541  6289  6445   un
 12542  6289  6550   un
 12543  6290  6446   un
 12544  6291  6447   un
 12545  6291  6551   un
 12546  6292  6448   un
 12547  6293  6449   un
 12548  6293  6552   un
 12549  6294  6450   un
 12550  6295  6451   un
 12551  6295  6553   un
 12552  6296  6356   un
 12553  6297  6357   un
 12554  6298  6358   un
 12555  6299  6359   un
 12556  6300  6360   un
 12557  6301  6361   un
 12558  6302  6362   un
 12559  6303  6363   un
 12560  6304  6364   un
 12561  6305  6365   un
 12562  6306  6366   un
 12563  6307  6367   un
 12564  6308  6368   un
 12565  6309  6369   un
 12566  6310  6370   un
 12567  6311  6371   un
 12568  6312  6372   un
 12569  6313  6373   un
 12570  6314  6374   un
 12571  6315  6375   un
 12572  6316  6376   un
 12573  6317  6377   un
 12574  6318  6378   un
 12575  6319  6379   un
 12576  6320  6439   un
 12577  6321  6438   un
 12578  6322  6431   un
 12579  6323  6430   un
 12580  6324  6435   un
 12581  6325  6434   un
 12582  6326  6451   un
 12583  6327  6448   un
 12584  6327  6548   un
 12585  6328  6450   un
 12586  6329  6449   un
 12587  6329  6549   un
 12588  6330  6443   un
 12589  6331  6440   un
 12590  6331  6550   un
 12591  6332  6442   un
 12592  6333  6441   un
 12593  6333  6551   un
 12594  6334  6447   un
 12595  6335  6444   un
 12596  6335  6552   un
 12597  6336  6446   un
 12598  6337  6445   un
 12599  6337  6553   un
 12600  6338  6379   un
 12601  6339  6376   un
 12602  6339  6539   un
 12603  6340  6378   un
 12604  6341  6377   un
 12605  6342  6371   un
 12606  6342  6542   un
 12607  6343  6368   un
 12608  6343  6543   un
 12609  6344  6370   un
 12610  6345  6369   un
 12611  6346  6375   un
 12612  6346  6545   un
 12613  6347  6372   un
 12614  6347  6546   un
 12615  6348  6374   un
 12616  6349  6373   un
 12617  6350  6366   un
 12618  6351  6365   un
 12619  6352  6358   un
 12620  6353  6357   un
 12621  6354  6362   un
 12622  6355  6361   un
 12623  6356  6380   un
 12624  6357  6381   un
 12625  6358  6382   un
 12626  6359  6383   un
 12627  6360  6384   un
 12628  6361  6385   un
 12629  6362  6386   un
 12630  6363  6387   un
 12631  6364  6388   un
 12632  6365  6389   un
 12633  6366  6390   un
 12634  6367  6391   un
 12635  6368  6392   un
 12636  6369  6393   un
 12637  6370  6394   un
 12638  6371  6395   un
 12639  6372  6396   un
 12640  6373  6397   un
 12641  6374  6398   un
 12642  6375  6399   un
 12643  6376  6400   un
 12644  6377  6401   un
 12645  6378  6402   un
 12646  6379  6403   un
 12647  6380  6381   un
 12648  6380  6404    1
 12649  6381  6405    1
 12650  6382  6383   un
 12651  6382  6406    1
 12652  6383  6407    1
 12653  6384  6385   un
 12654  6384  6408    1
 12655  6385  6409    1
 12656  6386  6387   un
 12657  6386  6410    1
 12658  6387  6411    1
 12659  6388  6389   un
 12660  6388  6412    1
 12661  6389  6413    1
 12662  6390  6391   un
 12663  6390  6414    1
 12664  6391  6415    1
 12665  6392  6393   un
 12666  6392  6416    1
 12667  6393  6417    1
 12668  6394  6395   un
 12669  6394  6418    1
 12670  6395  6419    1
 12671  6396  6397   un
 12672  6396  6420    1
 12673  6397  6421    1
 12674  6398  6399   un
 12675  6398  6422    1
 12676  6399  6423    1
 12677  6400  6401   un
 12678  6400  6424    1
 12679  6401  6425    1
 12680  6402  6403   un
 12681  6402  6426    1
 12682  6403  6427    1
 12683  6428  6452   un
 12684  6429  6453   un
 12685  6430  6454   un
 12686  6431  6455   un
 12687  6432  6456   un
 12688  6433  6457   un
 12689  6434  6458   un
 12690  6435  6459   un
 12691  6436  6460   un
 12692  6437  6461   un
 12693  6438  6462   un
 12694  6439  6463   un
 12695  6440  6464   un
 12696  6441  6465   un
 12697  6442  6466   un
 12698  6443  6467   un
 12699  6444  6468   un
 12700  6445  6469   un
 12701  6446  6470   un
 12702  6447  6471   un
 12703  6448  6472   un
 12704  6449  6473   un
 12705  6450  6474   un
 12706  6451  6475   un
 12707  6452  6453   un
 12708  6452  6476    1
 12709  6453  6477    1
 12710  6454  6455   un
 12711  6454  6478    1
 12712  6455  6479    1
 12713  6456  6457   un
 12714  6456  6480    1
 12715  6457  6481    1
 12716  6458  6459   un
 12717  6458  6482    1
 12718  6459  6483    1
 12719  6460  6461   un
 12720  6460  6484    1
 12721  6461  6485    1
 12722  6462  6463   un
 12723  6462  6486    1
 12724  6463  6487    1
 12725  6464  6465   un
 12726  6464  6488    1
 12727  6465  6489    1
 12728  6466  6467   un
 12729  6466  6490    1
 12730  6467  6491    1
 12731  6468  6469   un
 12732  6468  6492    1
 12733  6469  6493    1
 12734  6470  6471   un
 12735  6470  6494    1
 12736  6471  6495    1
 12737  6472  6473   un
 12738  6472  6496    1
 12739  6473  6497    1
 12740  6474  6475   un
 12741  6474  6498    1
 12742  6475  6499    1
 12743  6500  6519    1
 12744  6500  6539    1
 12745  6500  6551    1
 12746  6501  6520    1
 12747  6502  6521    1
 12748  6502  6542    1
 12749  6503  6522    1
 12750  6503  6543    1
 12751  6503  6553    1
 12752  6504  6523    1
 12753  6505  6524    1
 12754  6505  6545    1
 12755  6506  6525    1
 12756  6506  6546    1
 12757  6506  6549    1
 12758  6507  6526    1
 12759  6508  6527    1
 12760  6509  6528    1
 12761  6509  6542    1
 12762  6510  6529    1
 12763  6511  6530    1
 12764  6511  6545    1
 12765  6512  6531    1
 12766  6513  6532    1
 12767  6514  6533    1
 12768  6515  6534    1
 12769  6515  6550    1
 12770  6515  6553    1
 12771  6516  6535    1
 12772  6516  6548    1
 12773  6516  6551    1
 12774  6517  6536    1
 12775  6518  6537    1
 12776  6518  6549    1
 12777  6518  6552    1
 12778  6519  6539    1
 12779  6519  6551    1
 12780  6521  6542    1
 12781  6522  6543    1
 12782  6522  6553    1
 12783  6524  6545    1
 12784  6525  6546    1
 12785  6525  6549    1
 12786  6528  6542    1
 12787  6530  6545    1
 12788  6534  6550    1
 12789  6534  6553    1
 12790  6535  6548    1
 12791  6535  6551    1
 12792  6537  6549    1
 12793  6537  6552    1
 12794  6538  6572    1
 12795  6538  6580    1
 12796  6538  6583    1
 12797  6538  6587    1
 12798  6538  6595    1
 12799  6538  6598    1
 12800  6538  9219   un
 12801  6538  9399    1
 12802  6538  9421    1
 12803  6538  9522   un
 12804  6538  9540   un
 12805  6538  9564   un
 12806  6539  6544   un
 12807  6539  6551   un
 12808  6539  6581    1
 12809  6539  6596    1
 12810  6539  6630   un
 12811  6539  6845    1
 12812  6539  6865    1
 12813  6539  6882   un
 12814  6539  6891   un
 12815  6539  6897   un
 12816  6539  6924    1
 12817  6539  6942    1
 12818  6540  6546   un
 12819  6540  6552   un
 12820  6540  6573    1
 12821  6540  6579    1
 12822  6540  6588    1
 12823  6540  6594    1
 12824  6540  9543   un
 12825  6540  9585   un
 12826  6540  9785   un
 12827  6540  9799   un
 12828  6540  9805   un
 12829  6540  9826    1
 12830  6540  9829    1
 12831  6540  9841    1
 12832  6540  9844    1
 12833  6541  6574    1
 12834  6541  6582    1
 12835  6541  6585    1
 12836  6541  6589    1
 12837  6541  6597    1
 12838  6541  6600    1
 12839  6542  6586    1
 12840  6542  6601    1
 12841  6542  8787    1
 12842  6542  8800    1
 12843  6542  9524   un
 12844  6542  9544   un
 12845  6542  9566   un
 12846  6543  6547   un
 12847  6543  6553   un
 12848  6543  6577    1
 12849  6543  6592    1
 12850  6543  6874   un
 12851  6543  6922    1
 12852  6543  6940    1
 12853  6543  9545   un
 12854  6543  9757    1
 12855  6543  9776    1
 12856  6543  9800   un
 12857  6543  9806   un
 12858  6544  6548   un
 12859  6544  6575    1
 12860  6544  6581    1
 12861  6544  6590    1
 12862  6544  6596    1
 12863  6544  6882   un
 12864  6544  6924    1
 12865  6544  6942    1
 12866  6545  6584    1
 12867  6545  6599    1
 12868  6546  6549   un
 12869  6546  6579    1
 12870  6546  6594    1
 12871  6546  9785   un
 12872  6546  9829    1
 12873  6546  9844    1
 12874  6547  6550   un
 12875  6547  6576    1
 12876  6547  6577    1
 12877  6547  6591    1
 12878  6547  6592    1
 12879  6547  6640   un
 12880  6547  6682   un
 12881  6547  6874   un
 12882  6547  6896   un
 12883  6547  6902   un
 12884  6547  6918    1
 12885  6547  6922    1
 12886  6547  6936    1
 12887  6547  6940    1
 12888  6548  6551   un
 12889  6548  6575    1
 12890  6548  6590    1
 12891  6548  6839    1
 12892  6548  6859    1
 12893  6548  6882   un
 12894  6549  6552   un
 12895  6549  9785   un
 12896  6549  9818    1
 12897  6549  9833    1
 12898  6550  6553   un
 12899  6550  6576    1
 12900  6550  6591    1
 12901  6550  6646   un
 12902  6550  6874   un
 12903  6550  6906   un
 12904  6550  6909    1
 12905  6550  6918    1
 12906  6550  6927    1
 12907  6550  6936    1
 12908  6551  6648   un
 12909  6551  6686   un
 12910  6551  6839    1
 12911  6551  6845    1
 12912  6551  6859    1
 12913  6551  6865    1
 12914  6551  6882   un
 12915  6552  6573    1
 12916  6552  6588    1
 12917  6552  9561   un
 12918  6552  9785   un
 12919  6552  9815   un
 12920  6552  9818    1
 12921  6552  9826    1
 12922  6552  9833    1
 12923  6552  9841    1
 12924  6553  6874   un
 12925  6553  6909    1
 12926  6553  6927    1
 12927  6553  9563   un
 12928  6553  9599   un
 12929  6553  9757    1
 12930  6553  9776    1
 12931  6556  6766   un
 12932  6557  6768   un
 12933  6558  9681   un
 12934  6559  9683   un
 12935  6562  6761   un
 12936  6563  6762   un
 12937  6564  9676   un
 12938  6565  9677   un
 12939  6566  6700   un
 12940  6567  6697   un
 12941  6568  9603   un
 12942  6569  9600   un
 12943  6572  6587    1
 12944  6573  6588    1
 12945  6574  6589    1
 12946  6575  6590    1
 12947  6576  6591    1
 12948  6577  6592    1
 12949  6578  6593    1
 12950  6579  6594    1
 12951  6580  6595    1
 12952  6581  6596    1
 12953  6582  6597    1
 12954  6583  6598    1
 12955  6584  6599    1
 12956  6585  6600    1
 12957  6586  6601    1
 12958  6602  6603   un
 12959  6602  6604   un
 12960  6602  6608   un
 12961  6602  6610   un
 12962  6602  6612   un
 12963  6602  6631   un
 12964  6602  6654   un
 12965  6602  6673   un
 12966  6602  6835    1
 12967  6602  6844    1
 12968  6602  6846    1
 12969  6602  6848    1
 12970  6602  6855    1
 12971  6602  6864    1
 12972  6602  6866    1
 12973  6602  6868    1
 12974  6603  6604   un
 12975  6603  6606   un
 12976  6603  6610   un
 12977  6603  6614   un
 12978  6603  6635   un
 12979  6603  6656   un
 12980  6603  6677   un
 12981  6603  6838    1
 12982  6603  6842    1
 12983  6603  6846    1
 12984  6603  6848    1
 12985  6603  6858    1
 12986  6603  6862    1
 12987  6603  6866    1
 12988  6603  6868    1
 12989  6604  6606   un
 12990  6604  6608   un
 12991  6604  6616   un
 12992  6604  6639   un
 12993  6604  6658   un
 12994  6604  6681   un
 12995  6604  6841    1
 12996  6604  6842    1
 12997  6604  6844    1
 12998  6604  6848    1
 12999  6604  6861    1
 13000  6604  6862    1
 13001  6604  6864    1
 13002  6604  6868    1
 13003  6605  6617   un
 13004  6605  6641   un
 13005  6605  6659   un
 13006  6605  6837    1
 13007  6605  6849    1
 13008  6605  6857    1
 13009  6605  6869    1
 13010  6605  6879   un
 13011  6605  6884   un
 13012  6605  6887   un
 13013  6605  6890   un
 13014  6605  6903   un
 13015  6605  6914    1
 13016  6605  6915    1
 13017  6605  6932    1
 13018  6605  6933    1
 13019  6606  6608   un
 13020  6606  6610   un
 13021  6606  6619   un
 13022  6606  6643   un
 13023  6606  6661   un
 13024  6606  6683   un
 13025  6606  6838    1
 13026  6606  6841    1
 13027  6606  6842    1
 13028  6606  6851    1
 13029  6606  6858    1
 13030  6606  6861    1
 13031  6606  6862    1
 13032  6606  6871    1
 13033  6607  6621   un
 13034  6607  6645   un
 13035  6607  6663   un
 13036  6607  6840    1
 13037  6607  6852    1
 13038  6607  6860    1
 13039  6607  6872    1
 13040  6607  6876   un
 13041  6607  6883   un
 13042  6607  6886   un
 13043  6607  6889   un
 13044  6607  6905   un
 13045  6607  6910    1
 13046  6607  6917    1
 13047  6607  6928    1
 13048  6607  6935    1
 13049  6608  6610   un
 13050  6608  6623   un
 13051  6608  6647   un
 13052  6608  6665   un
 13053  6608  6685   un
 13054  6608  6835    1
 13055  6608  6841    1
 13056  6608  6844    1
 13057  6608  6851    1
 13058  6608  6855    1
 13059  6608  6861    1
 13060  6608  6864    1
 13061  6608  6871    1
 13062  6609  6625   un
 13063  6609  6649   un
 13064  6609  6667   un
 13065  6609  6834    1
 13066  6609  6850    1
 13067  6609  6854    1
 13068  6609  6870    1
 13069  6609  6875   un
 13070  6609  6880   un
 13071  6609  6885   un
 13072  6609  6888   un
 13073  6609  6907   un
 13074  6609  6912    1
 13075  6609  6919    1
 13076  6609  6930    1
 13077  6609  6937    1
 13078  6610  6627   un
 13079  6610  6651   un
 13080  6610  6669   un
 13081  6610  6687   un
 13082  6610  6835    1
 13083  6610  6838    1
 13084  6610  6846    1
 13085  6610  6851    1
 13086  6610  6855    1
 13087  6610  6858    1
 13088  6610  6866    1
 13089  6610  6871    1
 13090  6611  6761   un
 13091  6612  6763   un
 13092  6613  6765   un
 13093  6614  6767   un
 13094  6615  6769   un
 13095  6616  6771   un
 13096  6617  6773   un
 13097  6618  6774   un
 13098  6618  6885   un
 13099  6619  6775   un
 13100  6620  6776   un
 13101  6620  6886   un
 13102  6621  6777   un
 13103  6622  6778   un
 13104  6622  6887   un
 13105  6623  6779   un
 13106  6624  6780   un
 13107  6624  6888   un
 13108  6625  6781   un
 13109  6626  6782   un
 13110  6626  6889   un
 13111  6627  6783   un
 13112  6628  6784   un
 13113  6628  6890   un
 13114  6629  6689   un
 13115  6630  6690   un
 13116  6631  6691   un
 13117  6632  6692   un
 13118  6633  6693   un
 13119  6634  6694   un
 13120  6635  6695   un
 13121  6636  6696   un
 13122  6637  6697   un
 13123  6638  6698   un
 13124  6639  6699   un
 13125  6640  6700   un
 13126  6641  6701   un
 13127  6642  6702   un
 13128  6643  6703   un
 13129  6644  6704   un
 13130  6645  6705   un
 13131  6646  6706   un
 13132  6647  6707   un
 13133  6648  6708   un
 13134  6649  6709   un
 13135  6650  6710   un
 13136  6651  6711   un
 13137  6652  6712   un
 13138  6653  6772   un
 13139  6654  6771   un
 13140  6655  6764   un
 13141  6656  6763   un
 13142  6657  6768   un
 13143  6658  6767   un
 13144  6659  6784   un
 13145  6660  6781   un
 13146  6660  6885   un
 13147  6661  6783   un
 13148  6662  6782   un
 13149  6662  6886   un
 13150  6663  6776   un
 13151  6664  6773   un
 13152  6664  6887   un
 13153  6665  6775   un
 13154  6666  6774   un
 13155  6666  6888   un
 13156  6667  6780   un
 13157  6668  6777   un
 13158  6668  6889   un
 13159  6669  6779   un
 13160  6670  6778   un
 13161  6670  6890   un
 13162  6671  6712   un
 13163  6671  6873   un
 13164  6672  6709   un
 13165  6672  6875   un
 13166  6673  6711   un
 13167  6674  6710   un
 13168  6675  6704   un
 13169  6675  6878   un
 13170  6676  6701   un
 13171  6676  6879   un
 13172  6677  6703   un
 13173  6678  6702   un
 13174  6679  6708   un
 13175  6679  6882   un
 13176  6680  6705   un
 13177  6680  6883   un
 13178  6681  6707   un
 13179  6682  6706   un
 13180  6683  6699   un
 13181  6684  6698   un
 13182  6685  6691   un
 13183  6686  6690   un
 13184  6687  6695   un
 13185  6688  6694   un
 13186  6689  6713   un
 13187  6690  6714   un
 13188  6691  6715   un
 13189  6692  6716   un
 13190  6693  6717   un
 13191  6694  6718   un
 13192  6695  6719   un
 13193  6696  6720   un
 13194  6697  6721   un
 13195  6698  6722   un
 13196  6699  6723   un
 13197  6700  6724   un
 13198  6701  6725   un
 13199  6702  6726   un
 13200  6703  6727   un
 13201  6704  6728   un
 13202  6705  6729   un
 13203  6706  6730   un
 13204  6707  6731   un
 13205  6708  6732   un
 13206  6709  6733   un
 13207  6710  6734   un
 13208  6711  6735   un
 13209  6712  6736   un
 13210  6713  6714   un
 13211  6713  6737    1
 13212  6714  6738    1
 13213  6715  6716   un
 13214  6715  6739    1
 13215  6716  6740    1
 13216  6717  6718   un
 13217  6717  6741    1
 13218  6718  6742    1
 13219  6719  6720   un
 13220  6719  6743    1
 13221  6720  6744    1
 13222  6721  6722   un
 13223  6721  6745    1
 13224  6722  6746    1
 13225  6723  6724   un
 13226  6723  6747    1
 13227  6724  6748    1
 13228  6725  6726   un
 13229  6725  6749    1
 13230  6726  6750    1
 13231  6727  6728   un
 13232  6727  6751    1
 13233  6728  6752    1
 13234  6729  6730   un
 13235  6729  6753    1
 13236  6730  6754    1
 13237  6731  6732   un
 13238  6731  6755    1
 13239  6732  6756    1
 13240  6733  6734   un
 13241  6733  6757    1
 13242  6734  6758    1
 13243  6735  6736   un
 13244  6735  6759    1
 13245  6736  6760    1
 13246  6761  6785   un
 13247  6762  6786   un
 13248  6763  6787   un
 13249  6764  6788   un
 13250  6765  6789   un
 13251  6766  6790   un
 13252  6767  6791   un
 13253  6768  6792   un
 13254  6769  6793   un
 13255  6770  6794   un
 13256  6771  6795   un
 13257  6772  6796   un
 13258  6773  6797   un
 13259  6774  6798   un
 13260  6775  6799   un
 13261  6776  6800   un
 13262  6777  6801   un
 13263  6778  6802   un
 13264  6779  6803   un
 13265  6780  6804   un
 13266  6781  6805   un
 13267  6782  6806   un
 13268  6783  6807   un
 13269  6784  6808   un
 13270  6785  6786   un
 13271  6785  6809    1
 13272  6786  6810    1
 13273  6787  6788   un
 13274  6787  6811    1
 13275  6788  6812    1
 13276  6789  6790   un
 13277  6789  6813    1
 13278  6790  6814    1
 13279  6791  6792   un
 13280  6791  6815    1
 13281  6792  6816    1
 13282  6793  6794   un
 13283  6793  6817    1
 13284  6794  6818    1
 13285  6795  6796   un
 13286  6795  6819    1
 13287  6796  6820    1
 13288  6797  6798   un
 13289  6797  6821    1
 13290  6798  6822    1
 13291  6799  6800   un
 13292  6799  6823    1
 13293  6800  6824    1
 13294  6801  6802   un
 13295  6801  6825    1
 13296  6802  6826    1
 13297  6803  6804   un
 13298  6803  6827    1
 13299  6804  6828    1
 13300  6805  6806   un
 13301  6805  6829    1
 13302  6806  6830    1
 13303  6807  6808   un
 13304  6807  6831    1
 13305  6808  6832    1
 13306  6833  6853    1
 13307  6833  6873    1
 13308  6834  6854    1
 13309  6834  6875    1
 13310  6834  6888    1
 13311  6835  6855    1
 13312  6836  6856    1
 13313  6836  6878    1
 13314  6837  6857    1
 13315  6837  6879    1
 13316  6837  6890    1
 13317  6838  6858    1
 13318  6839  6859    1
 13319  6839  6882    1
 13320  6840  6860    1
 13321  6840  6883    1
 13322  6840  6886    1
 13323  6841  6861    1
 13324  6842  6862    1
 13325  6843  6863    1
 13326  6843  6878    1
 13327  6844  6864    1
 13328  6845  6865    1
 13329  6845  6882    1
 13330  6846  6866    1
 13331  6847  6867    1
 13332  6847  6873    1
 13333  6848  6868    1
 13334  6849  6869    1
 13335  6849  6887    1
 13336  6849  6890    1
 13337  6850  6870    1
 13338  6850  6885    1
 13339  6850  6888    1
 13340  6851  6871    1
 13341  6852  6872    1
 13342  6852  6886    1
 13343  6852  6889    1
 13344  6853  6873    1
 13345  6854  6875    1
 13346  6854  6888    1
 13347  6856  6878    1
 13348  6857  6879    1
 13349  6857  6890    1
 13350  6859  6882    1
 13351  6860  6883    1
 13352  6860  6886    1
 13353  6863  6878    1
 13354  6865  6882    1
 13355  6867  6873    1
 13356  6869  6887    1
 13357  6869  6890    1
 13358  6870  6885    1
 13359  6870  6888    1
 13360  6872  6886    1
 13361  6872  6889    1
 13362  6873  6921    1
 13363  6873  6939    1
 13364  6874  6909    1
 13365  6874  6918    1
 13366  6874  6922    1
 13367  6874  6927    1
 13368  6874  6936    1
 13369  6874  6940    1
 13370  6874  9582   un
 13371  6874  9757    1
 13372  6874  9776    1
 13373  6874  9855   un
 13374  6874  9873   un
 13375  6874  9897   un
 13376  6875  6880   un
 13377  6875  6888   un
 13378  6875  6919    1
 13379  6875  6937    1
 13380  6876  6883   un
 13381  6876  6889   un
 13382  6876  6910    1
 13383  6876  6917    1
 13384  6876  6928    1
 13385  6876  6935    1
 13386  6876  9876   un
 13387  6876  9918   un
 13388  6876 10121   un
 13389  6876 10136   un
 13390  6876 10142   un
 13391  6876 10164    1
 13392  6876 10169    1
 13393  6876 10182    1
 13394  6876 10187    1
 13395  6877  6911    1
 13396  6877  6920    1
 13397  6877  6925    1
 13398  6877  6929    1
 13399  6877  6938    1
 13400  6877  6943    1
 13401  6878  6926    1
 13402  6878  6944    1
 13403  6878  9120    1
 13404  6878  9136    1
 13405  6878  9857   un
 13406  6878  9877   un
 13407  6878  9899   un
 13408  6879  6884   un
 13409  6879  6890   un
 13410  6879  6915    1
 13411  6879  6933    1
 13412  6879  9878   un
 13413  6879 10091    1
 13414  6879 10111    1
 13415  6879 10117   un
 13416  6879 10137   un
 13417  6879 10143   un
 13418  6879 10165    1
 13419  6879 10183    1
 13420  6880  6885   un
 13421  6880  6912    1
 13422  6880  6919    1
 13423  6880  6930    1
 13424  6880  6937    1
 13425  6881  6913    1
 13426  6881  6916    1
 13427  6881  6923    1
 13428  6881  6931    1
 13429  6881  6934    1
 13430  6881  6941    1
 13431  6882  6924    1
 13432  6882  6942    1
 13433  6883  6886   un
 13434  6883  6917    1
 13435  6883  6935    1
 13436  6883 10121   un
 13437  6883 10169    1
 13438  6883 10187    1
 13439  6884  6887   un
 13440  6884  6914    1
 13441  6884  6915    1
 13442  6884  6932    1
 13443  6884  6933    1
 13444  6884 10117   un
 13445  6884 10165    1
 13446  6884 10183    1
 13447  6885  6888   un
 13448  6885  6912    1
 13449  6885  6930    1
 13450  6886  6889   un
 13451  6886 10121   un
 13452  6886 10155    1
 13453  6886 10173    1
 13454  6887  6890   un
 13455  6887  6914    1
 13456  6887  6932    1
 13457  6887 10077    1
 13458  6887 10097    1
 13459  6887 10117   un
 13460  6889  6910    1
 13461  6889  6928    1
 13462  6889  9894   un
 13463  6889 10121   un
 13464  6889 10152   un
 13465  6889 10155    1
 13466  6889 10164    1
 13467  6889 10173    1
 13468  6889 10182    1
 13469  6890  9896   un
 13470  6890  9932   un
 13471  6890 10077    1
 13472  6890 10091    1
 13473  6890 10097    1
 13474  6890 10111    1
 13475  6890 10117   un
 13476  6895 10014   un
 13477  6896 10016   un
 13478  6901 10009   un
 13479  6902 10010   un
 13480  6905  9936   un
 13481  6906  9933   un
 13482  6909  6927    1
 13483  6910  6928    1
 13484  6911  6929    1
 13485  6912  6930    1
 13486  6913  6931    1
 13487  6914  6932    1
 13488  6915  6933    1
 13489  6916  6934    1
 13490  6917  6935    1
 13491  6918  6936    1
 13492  6919  6937    1
 13493  6920  6938    1
 13494  6921  6939    1
 13495  6922  6940    1
 13496  6923  6941    1
 13497  6924  6942    1
 13498  6925  6943    1
 13499  6926  6944    1
 13500  6945  6960   un
 13501  6945  6986   un
 13502  6945  7212    1
 13503  6945  7238    1
 13504  6945  7259   un
 13505  6945  7262   un
 13506  6945  7276   un
 13507  6945  7281   un
 13508  6945  7291   un
 13509  6945  7302   un
 13510  6945  7312    1
 13511  6945  7325    1
 13512  6945  7331    1
 13513  6945  7338    1
 13514  6945  7351    1
 13515  6945  7357    1
 13516  6946  6947   un
 13517  6946  6951   un
 13518  6946  6959   un
 13519  6946  6962   un
 13520  6946  6965   un
 13521  6946  6987   un
 13522  6946  7011   un
 13523  6946  7033   un
 13524  6946  7198    1
 13525  6946  7211    1
 13526  6946  7215    1
 13527  6946  7218    1
 13528  6946  7224    1
 13529  6946  7237    1
 13530  6946  7241    1
 13531  6946  7244    1
 13532  6947  6951   un
 13533  6947  6955   un
 13534  6947  6962   un
 13535  6947  6969   un
 13536  6947  6991   un
 13537  6947  7015   un
 13538  6947  7037   un
 13539  6947  7201    1
 13540  6947  7209    1
 13541  6947  7215    1
 13542  6947  7218    1
 13543  6947  7227    1
 13544  6947  7235    1
 13545  6947  7241    1
 13546  6947  7244    1
 13547  6948  6954   un
 13548  6948  6992   un
 13549  6948  7038   un
 13550  6948  7202    1
 13551  6948  7213    1
 13552  6948  7228    1
 13553  6948  7239    1
 13554  6948  7251   un
 13555  6948  7261   un
 13556  6948  7275   un
 13557  6948  7284   un
 13558  6948  7294   un
 13559  6948  7320    1
 13560  6948  7330    1
 13561  6948  7346    1
 13562  6948  7356    1
 13563  6949  6971   un
 13564  6949  6993   un
 13565  6949  7017   un
 13566  6949  7208    1
 13567  6949  7217    1
 13568  6949  7234    1
 13569  6949  7243    1
 13570  6949  7250   un
 13571  6949  7258   un
 13572  6949  7266   un
 13573  6949  7272   un
 13574  6949  7303   un
 13575  6949  7315    1
 13576  6949  7324    1
 13577  6949  7341    1
 13578  6949  7350    1
 13579  6950  6956   un
 13580  6950  6994   un
 13581  6950  7210    1
 13582  6950  7236    1
 13583  6950  7253   un
 13584  6950  7255   un
 13585  6950  7270   un
 13586  6950  7285   un
 13587  6950  7295   un
 13588  6950  7304   un
 13589  6950  7317    1
 13590  6950  7321    1
 13591  6950  7332    1
 13592  6950  7343    1
 13593  6950  7347    1
 13594  6950  7358    1
 13595  6951  6955   un
 13596  6951  6959   un
 13597  6951  6972   un
 13598  6951  6995   un
 13599  6951  7018   un
 13600  6951  7041   un
 13601  6951  7205    1
 13602  6951  7209    1
 13603  6951  7211    1
 13604  6951  7218    1
 13605  6951  7231    1
 13606  6951  7235    1
 13607  6951  7237    1
 13608  6951  7244    1
 13609  6952  6958   un
 13610  6952  6996   un
 13611  6952  7042   un
 13612  6952  7206    1
 13613  6952  7207    1
 13614  6952  7232    1
 13615  6952  7233    1
 13616  6952  7249   un
 13617  6952  7256   un
 13618  6952  7265   un
 13619  6952  7286   un
 13620  6952  7296   un
 13621  6952  7323    1
 13622  6952  7329    1
 13623  6952  7349    1
 13624  6952  7355    1
 13625  6953  6973   un
 13626  6953  6997   un
 13627  6953  7019   un
 13628  6953  7200    1
 13629  6953  7219    1
 13630  6953  7226    1
 13631  6953  7245    1
 13632  6953  7257   un
 13633  6953  7264   un
 13634  6953  7271   un
 13635  6953  7280   un
 13636  6953  7305   un
 13637  6953  7318    1
 13638  6953  7319    1
 13639  6953  7344    1
 13640  6953  7345    1
 13641  6954  6998   un
 13642  6954  7202    1
 13643  6954  7228    1
 13644  6954  7261   un
 13645  6954  7273   un
 13646  6954  7275   un
 13647  6954  7287   un
 13648  6954  7297   un
 13649  6954  7306   un
 13650  6954  7316    1
 13651  6954  7320    1
 13652  6954  7334    1
 13653  6954  7342    1
 13654  6954  7346    1
 13655  6954  7360    1
 13656  6955  6959   un
 13657  6955  6962   un
 13658  6955  6975   un
 13659  6955  6999   un
 13660  6955  7021   un
 13661  6955  7045   un
 13662  6955  7201    1
 13663  6955  7205    1
 13664  6955  7209    1
 13665  6955  7221    1
 13666  6955  7227    1
 13667  6955  7231    1
 13668  6955  7235    1
 13669  6955  7247    1
 13670  6956  7000   un
 13671  6956  7046   un
 13672  6956  7199    1
 13673  6956  7210    1
 13674  6956  7225    1
 13675  6956  7236    1
 13676  6956  7255   un
 13677  6956  7270   un
 13678  6956  7277   un
 13679  6956  7288   un
 13680  6956  7298   un
 13681  6956  7317    1
 13682  6956  7336    1
 13683  6956  7343    1
 13684  6956  7362    1
 13685  6957  6977   un
 13686  6957  7001   un
 13687  6957  7023   un
 13688  6957  7204    1
 13689  6957  7222    1
 13690  6957  7230    1
 13691  6957  7248    1
 13692  6957  7254   un
 13693  6957  7263   un
 13694  6957  7269   un
 13695  6957  7278   un
 13696  6957  7307   un
 13697  6957  7313    1
 13698  6957  7322    1
 13699  6957  7339    1
 13700  6957  7348    1
 13701  6958  7002   un
 13702  6958  7206    1
 13703  6958  7232    1
 13704  6958  7249   un
 13705  6958  7265   un
 13706  6958  7279   un
 13707  6958  7289   un
 13708  6958  7299   un
 13709  6958  7308   un
 13710  6958  7311    1
 13711  6958  7323    1
 13712  6958  7333    1
 13713  6958  7337    1
 13714  6958  7349    1
 13715  6958  7359    1
 13716  6959  6962   un
 13717  6959  6979   un
 13718  6959  7003   un
 13719  6959  7025   un
 13720  6959  7047   un
 13721  6959  7198    1
 13722  6959  7205    1
 13723  6959  7211    1
 13724  6959  7221    1
 13725  6959  7224    1
 13726  6959  7231    1
 13727  6959  7237    1
 13728  6959  7247    1
 13729  6960  7004   un
 13730  6960  7048   un
 13731  6960  7203    1
 13732  6960  7212    1
 13733  6960  7229    1
 13734  6960  7238    1
 13735  6960  7262   un
 13736  6960  7267   un
 13737  6960  7276   un
 13738  6960  7290   un
 13739  6960  7300   un
 13740  6960  7312    1
 13741  6960  7335    1
 13742  6960  7338    1
 13743  6960  7361    1
 13744  6961  6981   un
 13745  6961  7005   un
 13746  6961  7027   un
 13747  6961  7197    1
 13748  6961  7220    1
 13749  6961  7223    1
 13750  6961  7246    1
 13751  6961  7252   un
 13752  6961  7260   un
 13753  6961  7268   un
 13754  6961  7274   un
 13755  6961  7309   un
 13756  6961  7314    1
 13757  6961  7326    1
 13758  6961  7340    1
 13759  6961  7352    1
 13760  6962  6983   un
 13761  6962  7007   un
 13762  6962  7029   un
 13763  6962  7051   un
 13764  6962  7198    1
 13765  6962  7201    1
 13766  6962  7215    1
 13767  6962  7221    1
 13768  6962  7224    1
 13769  6962  7227    1
 13770  6962  7241    1
 13771  6962  7247    1
 13772  6963  7125   un
 13773  6964  7126   un
 13774  6964  7250   un
 13775  6965  7127   un
 13776  6966  7128   un
 13777  6967  7129   un
 13778  6968  7130   un
 13779  6969  7131   un
 13780  6970  7132   un
 13781  6970  7258   un
 13782  6971  7133   un
 13783  6972  7135   un
 13784  6973  7137   un
 13785  6974  7138   un
 13786  6974  7268   un
 13787  6975  7139   un
 13788  6976  7140   un
 13789  6976  7269   un
 13790  6977  7141   un
 13791  6978  7142   un
 13792  6978  7271   un
 13793  6979  7143   un
 13794  6980  7144   un
 13795  6980  7274   un
 13796  6981  7145   un
 13797  6982  7146   un
 13798  6982  7278   un
 13799  6983  7147   un
 13800  6984  7148   un
 13801  6984  7280   un
 13802  6985  7053   un
 13803  6986  7054   un
 13804  6987  7055   un
 13805  6988  7056   un
 13806  6989  7057   un
 13807  6990  7058   un
 13808  6991  7059   un
 13809  6992  7060   un
 13810  6993  7061   un
 13811  6994  7062   un
 13812  6995  7063   un
 13813  6996  7064   un
 13814  6997  7065   un
 13815  6998  7066   un
 13816  6999  7067   un
 13817  7000  7068   un
 13818  7001  7069   un
 13819  7002  7070   un
 13820  7003  7071   un
 13821  7004  7072   un
 13822  7005  7073   un
 13823  7006  7074   un
 13824  7007  7075   un
 13825  7008  7076   un
 13826  7009  7136   un
 13827  7010  7133   un
 13828  7010  7250   un
 13829  7011  7135   un
 13830  7012  7134   un
 13831  7013  7128   un
 13832  7014  7125   un
 13833  7015  7127   un
 13834  7016  7126   un
 13835  7016  7258   un
 13836  7017  7132   un
 13837  7018  7131   un
 13838  7019  7148   un
 13839  7020  7145   un
 13840  7020  7268   un
 13841  7021  7147   un
 13842  7022  7146   un
 13843  7022  7269   un
 13844  7023  7140   un
 13845  7024  7137   un
 13846  7024  7271   un
 13847  7025  7139   un
 13848  7026  7138   un
 13849  7026  7274   un
 13850  7027  7144   un
 13851  7028  7141   un
 13852  7028  7278   un
 13853  7029  7143   un
 13854  7030  7142   un
 13855  7030  7280   un
 13856  7031  7076   un
 13857  7032  7073   un
 13858  7032  7252   un
 13859  7033  7075   un
 13860  7034  7074   un
 13861  7035  7068   un
 13862  7035  7255   un
 13863  7036  7065   un
 13864  7036  7257   un
 13865  7037  7067   un
 13866  7038  7066   un
 13867  7039  7072   un
 13868  7039  7262   un
 13869  7040  7069   un
 13870  7040  7263   un
 13871  7041  7071   un
 13872  7042  7070   un
 13873  7043  7064   un
 13874  7043  7265   un
 13875  7044  7061   un
 13876  7044  7266   un
 13877  7045  7063   un
 13878  7046  7062   un
 13879  7047  7055   un
 13880  7048  7054   un
 13881  7049  7060   un
 13882  7049  7275   un
 13883  7050  7057   un
 13884  7051  7059   un
 13885  7052  7058   un
 13886  7053  7077   un
 13887  7054  7078   un
 13888  7055  7079   un
 13889  7056  7080   un
 13890  7057  7081   un
 13891  7058  7082   un
 13892  7059  7083   un
 13893  7060  7084   un
 13894  7061  7085   un
 13895  7062  7086   un
 13896  7063  7087   un
 13897  7064  7088   un
 13898  7065  7089   un
 13899  7066  7090   un
 13900  7067  7091   un
 13901  7068  7092   un
 13902  7069  7093   un
 13903  7070  7094   un
 13904  7071  7095   un
 13905  7072  7096   un
 13906  7073  7097   un
 13907  7074  7098   un
 13908  7075  7099   un
 13909  7076  7100   un
 13910  7077  7078   un
 13911  7077  7101    1
 13912  7078  7102    1
 13913  7079  7080   un
 13914  7079  7103    1
 13915  7080  7104    1
 13916  7081  7082   un
 13917  7081  7105    1
 13918  7082  7106    1
 13919  7083  7084   un
 13920  7083  7107    1
 13921  7084  7108    1
 13922  7085  7086   un
 13923  7085  7109    1
 13924  7086  7110    1
 13925  7087  7088   un
 13926  7087  7111    1
 13927  7088  7112    1
 13928  7089  7090   un
 13929  7089  7113    1
 13930  7090  7114    1
 13931  7091  7092   un
 13932  7091  7115    1
 13933  7092  7116    1
 13934  7093  7094   un
 13935  7093  7117    1
 13936  7094  7118    1
 13937  7095  7096   un
 13938  7095  7119    1
 13939  7096  7120    1
 13940  7097  7098   un
 13941  7097  7121    1
 13942  7098  7122    1
 13943  7099  7100   un
 13944  7099  7123    1
 13945  7100  7124    1
 13946  7125  7149   un
 13947  7126  7150   un
 13948  7127  7151   un
 13949  7128  7152   un
 13950  7129  7153   un
 13951  7130  7154   un
 13952  7131  7155   un
 13953  7132  7156   un
 13954  7133  7157   un
 13955  7134  7158   un
 13956  7135  7159   un
 13957  7136  7160   un
 13958  7137  7161   un
 13959  7138  7162   un
 13960  7139  7163   un
 13961  7140  7164   un
 13962  7141  7165   un
 13963  7142  7166   un
 13964  7143  7167   un
 13965  7144  7168   un
 13966  7145  7169   un
 13967  7146  7170   un
 13968  7147  7171   un
 13969  7148  7172   un
 13970  7149  7150   un
 13971  7149  7173    1
 13972  7150  7174    1
 13973  7151  7152   un
 13974  7151  7175    1
 13975  7152  7176    1
 13976  7153  7154   un
 13977  7153  7177    1
 13978  7154  7178    1
 13979  7155  7156   un
 13980  7155  7179    1
 13981  7156  7180    1
 13982  7157  7158   un
 13983  7157  7181    1
 13984  7158  7182    1
 13985  7159  7160   un
 13986  7159  7183    1
 13987  7160  7184    1
 13988  7161  7162   un
 13989  7161  7185    1
 13990  7162  7186    1
 13991  7163  7164   un
 13992  7163  7187    1
 13993  7164  7188    1
 13994  7165  7166   un
 13995  7165  7189    1
 13996  7166  7190    1
 13997  7167  7168   un
 13998  7167  7191    1
 13999  7168  7192    1
 14000  7169  7170   un
 14001  7169  7193    1
 14002  7170  7194    1
 14003  7171  7172   un
 14004  7171  7195    1
 14005  7172  7196    1
 14006  7197  7223    1
 14007  7197  7252    1
 14008  7197  7274    1
 14009  7198  7224    1
 14010  7199  7225    1
 14011  7199  7255    1
 14012  7199  7277    1
 14013  7200  7226    1
 14014  7200  7257    1
 14015  7200  7280    1
 14016  7201  7227    1
 14017  7202  7228    1
 14018  7202  7275    1
 14019  7203  7229    1
 14020  7203  7262    1
 14021  7203  7267    1
 14022  7204  7230    1
 14023  7204  7263    1
 14024  7204  7269    1
 14025  7205  7231    1
 14026  7206  7232    1
 14027  7206  7265    1
 14028  7207  7233    1
 14029  7207  7256    1
 14030  7207  7265    1
 14031  7208  7234    1
 14032  7208  7258    1
 14033  7208  7266    1
 14034  7209  7235    1
 14035  7210  7236    1
 14036  7210  7255    1
 14037  7211  7237    1
 14038  7212  7238    1
 14039  7212  7262    1
 14040  7213  7239    1
 14041  7213  7251    1
 14042  7213  7275    1
 14043  7214  7240    1
 14044  7215  7241    1
 14045  7216  7242    1
 14046  7217  7243    1
 14047  7217  7250    1
 14048  7217  7258    1
 14049  7218  7244    1
 14050  7219  7245    1
 14051  7219  7271    1
 14052  7219  7280    1
 14053  7220  7246    1
 14054  7220  7268    1
 14055  7220  7274    1
 14056  7221  7247    1
 14057  7222  7248    1
 14058  7222  7269    1
 14059  7222  7278    1
 14060  7223  7252    1
 14061  7223  7274    1
 14062  7225  7255    1
 14063  7225  7277    1
 14064  7226  7257    1
 14065  7226  7280    1
 14066  7228  7275    1
 14067  7229  7262    1
 14068  7229  7267    1
 14069  7230  7263    1
 14070  7230  7269    1
 14071  7232  7265    1
 14072  7233  7256    1
 14073  7233  7265    1
 14074  7234  7258    1
 14075  7234  7266    1
 14076  7236  7255    1
 14077  7238  7262    1
 14078  7239  7251    1
 14079  7239  7275    1
 14080  7243  7250    1
 14081  7243  7258    1
 14082  7245  7271    1
 14083  7245  7280    1
 14084  7246  7268    1
 14085  7246  7274    1
 14086  7248  7269    1
 14087  7248  7278    1
 14088  7249  7256   un
 14089  7249  7279   un
 14090  7249  7311    1
 14091  7249  7323    1
 14092  7249  7329    1
 14093  7249  7337    1
 14094  7249  7349    1
 14095  7249  7355    1
 14096  7250  7258   un
 14097  7250  7272   un
 14098  7250  7324    1
 14099  7250  7350    1
 14100  7251  7261   un
 14101  7251  7273   un
 14102  7251  7275   un
 14103  7251  7330    1
 14104  7251  7356    1
 14105  7251  7377   un
 14106  7251  7421   un
 14107  7251  7705    1
 14108  7251  7725    1
 14109  7252  7260   un
 14110  7252  7274   un
 14111  7252  7326    1
 14112  7252  7352    1
 14113  7252  7397   un
 14114  7252  7616    1
 14115  7252  7638    1
 14116  7252  7657   un
 14117  7252  7670   un
 14118  7252  7678   un
 14119  7252  7710    1
 14120  7252  7730    1
 14121  7253  7255   un
 14122  7253  7270   un
 14123  7253  7277   un
 14124  7253  7321    1
 14125  7253  7332    1
 14126  7253  7347    1
 14127  7253  7358    1
 14128  7254  7263   un
 14129  7254  7278   un
 14130  7254  7313    1
 14131  7254  7322    1
 14132  7254  7339    1
 14133  7254  7348    1
 14134  7254  8398   un
 14135  7254  8455    1
 14136  7254  8473    1
 14137  7255  7277   un
 14138  7255  7332    1
 14139  7255  7358    1
 14140  7256  7265   un
 14141  7256  7279   un
 14142  7256  7329    1
 14143  7256  7355    1
 14144  7257  7264   un
 14145  7257  7280   un
 14146  7257  7319    1
 14147  7257  7345    1
 14148  7257  7648   un
 14149  7257  7708    1
 14150  7257  7728    1
 14151  7258  7266   un
 14152  7259  7262   un
 14153  7259  7267   un
 14154  7259  7276   un
 14155  7259  7325    1
 14156  7259  7331    1
 14157  7259  7351    1
 14158  7259  7357    1
 14159  7259  8128   un
 14160  7259  8172   un
 14161  7259  8361    1
 14162  7259  8383    1
 14163  7260  7268   un
 14164  7260  7314    1
 14165  7260  7326    1
 14166  7260  7340    1
 14167  7260  7352    1
 14168  7260  7657   un
 14169  7260  7710    1
 14170  7260  7730    1
 14171  7260  8150   un
 14172  7260  8194   un
 14173  7260  8419   un
 14174  7260  8427   un
 14175  7260  8446    1
 14176  7260  8464    1
 14177  7261  7273   un
 14178  7261  7316    1
 14179  7261  7320    1
 14180  7261  7330    1
 14181  7261  7342    1
 14182  7261  7346    1
 14183  7261  7356    1
 14184  7261  7382   un
 14185  7261  7404   un
 14186  7261  7426   un
 14187  7261  7686   un
 14188  7261  7705    1
 14189  7261  7725    1
 14190  7262  7267   un
 14191  7262  7331    1
 14192  7262  7357    1
 14193  7262  8129   un
 14194  7262  8151   un
 14195  7262  8173   un
 14196  7262  8361    1
 14197  7262  8383    1
 14198  7263  7269   un
 14199  7263  7322    1
 14200  7263  7348    1
 14201  7263  8152   un
 14202  7263  8363    1
 14203  7263  8385    1
 14204  7263  8398   un
 14205  7263  8420   un
 14206  7263  8428   un
 14207  7263  8455    1
 14208  7263  8473    1
 14209  7264  7271   un
 14210  7264  7318    1
 14211  7264  7319    1
 14212  7264  7344    1
 14213  7264  7345    1
 14214  7264  7407   un
 14215  7264  7451   un
 14216  7264  7648   un
 14217  7264  7675   un
 14218  7264  7683   un
 14219  7264  7704    1
 14220  7264  7708    1
 14221  7264  7724    1
 14222  7264  7728    1
 14223  7265  7279   un
 14224  7265  7333    1
 14225  7265  7359    1
 14226  7266  7272   un
 14227  7266  7315    1
 14228  7266  7341    1
 14229  7267  7276   un
 14230  7267  7335    1
 14231  7267  7361    1
 14232  7267  8200   un
 14233  7267  8361    1
 14234  7267  8383    1
 14235  7268  7274   un
 14236  7268  7314    1
 14237  7268  7340    1
 14238  7268  7610    1
 14239  7268  7632    1
 14240  7268  7657   un
 14241  7268  8156   un
 14242  7268  8435   un
 14243  7268  8446    1
 14244  7268  8464    1
 14245  7269  7278   un
 14246  7269  8158   un
 14247  7269  8202   un
 14248  7269  8353    1
 14249  7269  8363    1
 14250  7269  8375    1
 14251  7269  8385    1
 14252  7269  8398   un
 14253  7270  7277   un
 14254  7270  7317    1
 14255  7270  7321    1
 14256  7270  7336    1
 14257  7270  7343    1
 14258  7270  7347    1
 14259  7270  7362    1
 14260  7271  7280   un
 14261  7271  7318    1
 14262  7271  7344    1
 14263  7271  7413   un
 14264  7271  7648   un
 14265  7271  7691   un
 14266  7271  7694    1
 14267  7271  7704    1
 14268  7271  7714    1
 14269  7271  7724    1
 14270  7272  7315    1
 14271  7272  7324    1
 14272  7272  7341    1
 14273  7272  7350    1
 14274  7273  7275   un
 14275  7273  7316    1
 14276  7273  7334    1
 14277  7273  7342    1
 14278  7273  7360    1
 14279  7273  7705    1
 14280  7273  7725    1
 14281  7274  7415   un
 14282  7274  7455   un
 14283  7274  7610    1
 14284  7274  7616    1
 14285  7274  7632    1
 14286  7274  7638    1
 14287  7274  7657   un
 14288  7275  7334    1
 14289  7275  7360    1
 14290  7276  7312    1
 14291  7276  7325    1
 14292  7276  7335    1
 14293  7276  7338    1
 14294  7276  7351    1
 14295  7276  7361    1
 14296  7277  7336    1
 14297  7277  7362    1
 14298  7278  7313    1
 14299  7278  7339    1
 14300  7278  8353    1
 14301  7278  8375    1
 14302  7278  8398   un
 14303  7279  7311    1
 14304  7279  7333    1
 14305  7279  7337    1
 14306  7279  7359    1
 14307  7280  7648   un
 14308  7280  7694    1
 14309  7280  7714    1
 14310  7281  8280   un
 14311  7282  8282   un
 14312  7283  7537   un
 14313  7284  7539   un
 14314  7291  8287   un
 14315  7292  8288   un
 14316  7293  7532   un
 14317  7294  7533   un
 14318  7305  7471   un
 14319  7306  7468   un
 14320  7309  8214   un
 14321  7310  8211   un
 14322  7311  7337    1
 14323  7312  7338    1
 14324  7313  7339    1
 14325  7314  7340    1
 14326  7315  7341    1
 14327  7316  7342    1
 14328  7317  7343    1
 14329  7318  7344    1
 14330  7319  7345    1
 14331  7320  7346    1
 14332  7321  7347    1
 14333  7322  7348    1
 14334  7323  7349    1
 14335  7324  7350    1
 14336  7325  7351    1
 14337  7326  7352    1
 14338  7327  7353    1
 14339  7328  7354    1
 14340  7329  7355    1
 14341  7330  7356    1
 14342  7331  7357    1
 14343  7332  7358    1
 14344  7333  7359    1
 14345  7334  7360    1
 14346  7335  7361    1
 14347  7336  7362    1
 14348  7363  7364   un
 14349  7363  7367   un
 14350  7363  7373   un
 14351  7363  7375   un
 14352  7363  7378   un
 14353  7363  7398   un
 14354  7363  7422   un
 14355  7363  7442   un
 14356  7363  7605    1
 14357  7363  7615    1
 14358  7363  7619    1
 14359  7363  7621    1
 14360  7363  7627    1
 14361  7363  7637    1
 14362  7363  7641    1
 14363  7363  7643    1
 14364  7364  7367   un
 14365  7364  7370   un
 14366  7364  7375   un
 14367  7364  7381   un
 14368  7364  7402   un
 14369  7364  7425   un
 14370  7364  7446   un
 14371  7364  7608    1
 14372  7364  7613    1
 14373  7364  7619    1
 14374  7364  7621    1
 14375  7364  7630    1
 14376  7364  7635    1
 14377  7364  7641    1
 14378  7364  7643    1
 14379  7365  7369   un
 14380  7365  7403   un
 14381  7365  7447   un
 14382  7365  7609    1
 14383  7365  7617    1
 14384  7365  7631    1
 14385  7365  7639    1
 14386  7365  7649   un
 14387  7365  7656   un
 14388  7365  7666   un
 14389  7365  7673   un
 14390  7365  7681   un
 14391  7365  7701    1
 14392  7365  7709    1
 14393  7365  7721    1
 14394  7365  7729    1
 14395  7366  7371   un
 14396  7366  7405   un
 14397  7366  7614    1
 14398  7366  7636    1
 14399  7366  7651   un
 14400  7366  7653   un
 14401  7366  7662   un
 14402  7366  7674   un
 14403  7366  7682   un
 14404  7366  7687   un
 14405  7366  7698    1
 14406  7366  7702    1
 14407  7366  7711    1
 14408  7366  7718    1
 14409  7366  7722    1
 14410  7366  7731    1
 14411  7367  7370   un
 14412  7367  7373   un
 14413  7367  7383   un
 14414  7367  7406   un
 14415  7367  7427   un
 14416  7367  7450   un
 14417  7367  7612    1
 14418  7367  7613    1
 14419  7367  7615    1
 14420  7367  7621    1
 14421  7367  7634    1
 14422  7367  7635    1
 14423  7367  7637    1
 14424  7367  7643    1
 14425  7368  7384   un
 14426  7368  7408   un
 14427  7368  7428   un
 14428  7368  7607    1
 14429  7368  7622    1
 14430  7368  7629    1
 14431  7368  7644    1
 14432  7368  7654   un
 14433  7368  7659   un
 14434  7368  7663   un
 14435  7368  7669   un
 14436  7368  7688   un
 14437  7368  7699    1
 14438  7368  7700    1
 14439  7368  7719    1
 14440  7368  7720    1
 14441  7369  7409   un
 14442  7369  7609    1
 14443  7369  7631    1
 14444  7369  7656   un
 14445  7369  7664   un
 14446  7369  7666   un
 14447  7369  7676   un
 14448  7369  7684   un
 14449  7369  7689   un
 14450  7369  7697    1
 14451  7369  7701    1
 14452  7369  7712    1
 14453  7369  7717    1
 14454  7369  7721    1
 14455  7369  7732    1
 14456  7370  7373   un
 14457  7370  7375   un
 14458  7370  7386   un
 14459  7370  7410   un
 14460  7370  7430   un
 14461  7370  7452   un
 14462  7370  7608    1
 14463  7370  7612    1
 14464  7370  7613    1
 14465  7370  7624    1
 14466  7370  7630    1
 14467  7370  7634    1
 14468  7370  7635    1
 14469  7370  7646    1
 14470  7371  7411   un
 14471  7371  7453   un
 14472  7371  7606    1
 14473  7371  7614    1
 14474  7371  7628    1
 14475  7371  7636    1
 14476  7371  7653   un
 14477  7371  7662   un
 14478  7371  7667   un
 14479  7371  7677   un
 14480  7371  7685   un
 14481  7371  7698    1
 14482  7371  7713    1
 14483  7371  7718    1
 14484  7371  7733    1
 14485  7372  7388   un
 14486  7372  7412   un
 14487  7372  7432   un
 14488  7372  7611    1
 14489  7372  7625    1
 14490  7372  7633    1
 14491  7372  7647    1
 14492  7372  7652   un
 14493  7372  7658   un
 14494  7372  7661   un
 14495  7372  7668   un
 14496  7372  7690   un
 14497  7372  7695    1
 14498  7372  7703    1
 14499  7372  7715    1
 14500  7372  7723    1
 14501  7373  7375   un
 14502  7373  7390   un
 14503  7373  7414   un
 14504  7373  7434   un
 14505  7373  7454   un
 14506  7373  7605    1
 14507  7373  7612    1
 14508  7373  7615    1
 14509  7373  7624    1
 14510  7373  7627    1
 14511  7373  7634    1
 14512  7373  7637    1
 14513  7373  7646    1
 14514  7374  7392   un
 14515  7374  7416   un
 14516  7374  7436   un
 14517  7374  7604    1
 14518  7374  7623    1
 14519  7374  7626    1
 14520  7374  7645    1
 14521  7374  7650   un
 14522  7374  7655   un
 14523  7374  7660   un
 14524  7374  7665   un
 14525  7374  7692   un
 14526  7374  7696    1
 14527  7374  7706    1
 14528  7374  7716    1
 14529  7374  7726    1
 14530  7375  7394   un
 14531  7375  7418   un
 14532  7375  7438   un
 14533  7375  7458   un
 14534  7375  7605    1
 14535  7375  7608    1
 14536  7375  7619    1
 14537  7375  7624    1
 14538  7375  7627    1
 14539  7375  7630    1
 14540  7375  7641    1
 14541  7375  7646    1
 14542  7376  7532   un
 14543  7377  7533   un
 14544  7378  7534   un
 14545  7379  7535   un
 14546  7380  7536   un
 14547  7381  7538   un
 14548  7382  7540   un
 14549  7383  7542   un
 14550  7384  7544   un
 14551  7385  7545   un
 14552  7385  7660   un
 14553  7386  7546   un
 14554  7387  7547   un
 14555  7387  7661   un
 14556  7388  7548   un
 14557  7389  7549   un
 14558  7389  7663   un
 14559  7390  7550   un
 14560  7391  7551   un
 14561  7391  7665   un
 14562  7392  7552   un
 14563  7393  7553   un
 14564  7393  7668   un
 14565  7394  7554   un
 14566  7395  7555   un
 14567  7395  7669   un
 14568  7396  7460   un
 14569  7397  7461   un
 14570  7398  7462   un
 14571  7399  7463   un
 14572  7400  7464   un
 14573  7401  7465   un
 14574  7402  7466   un
 14575  7403  7467   un
 14576  7404  7468   un
 14577  7405  7469   un
 14578  7406  7470   un
 14579  7407  7471   un
 14580  7408  7472   un
 14581  7409  7473   un
 14582  7410  7474   un
 14583  7411  7475   un
 14584  7412  7476   un
 14585  7413  7477   un
 14586  7414  7478   un
 14587  7415  7479   un
 14588  7416  7480   un
 14589  7417  7481   un
 14590  7418  7482   un
 14591  7419  7483   un
 14592  7420  7543   un
 14593  7421  7540   un
 14594  7422  7542   un
 14595  7423  7541   un
 14596  7424  7535   un
 14597  7425  7534   un
 14598  7426  7539   un
 14599  7427  7538   un
 14600  7428  7555   un
 14601  7429  7552   un
 14602  7429  7660   un
 14603  7430  7554   un
 14604  7431  7553   un
 14605  7431  7661   un
 14606  7432  7547   un
 14607  7433  7544   un
 14608  7433  7663   un
 14609  7434  7546   un
 14610  7435  7545   un
 14611  7435  7665   un
 14612  7436  7551   un
 14613  7437  7548   un
 14614  7437  7668   un
 14615  7438  7550   un
 14616  7439  7549   un
 14617  7439  7669   un
 14618  7440  7483   un
 14619  7441  7480   un
 14620  7441  7650   un
 14621  7442  7482   un
 14622  7443  7481   un
 14623  7444  7475   un
 14624  7444  7653   un
 14625  7445  7472   un
 14626  7445  7654   un
 14627  7446  7474   un
 14628  7447  7473   un
 14629  7448  7479   un
 14630  7448  7657   un
 14631  7449  7476   un
 14632  7449  7658   un
 14633  7450  7478   un
 14634  7451  7477   un
 14635  7452  7470   un
 14636  7453  7469   un
 14637  7454  7462   un
 14638  7455  7461   un
 14639  7456  7467   un
 14640  7456  7666   un
 14641  7457  7464   un
 14642  7458  7466   un
 14643  7459  7465   un
 14644  7460  7484   un
 14645  7461  7485   un
 14646  7462  7486   un
 14647  7463  7487   un
 14648  7464  7488   un
 14649  7465  7489   un
 14650  7466  7490   un
 14651  7467  7491   un
 14652  7468  7492   un
 14653  7469  7493   un
 14654  7470  7494   un
 14655  7471  7495   un
 14656  7472  7496   un
 14657  7473  7497   un
 14658  7474  7498   un
 14659  7475  7499   un
 14660  7476  7500   un
 14661  7477  7501   un
 14662  7478  7502   un
 14663  7479  7503   un
 14664  7480  7504   un
 14665  7481  7505   un
 14666  7482  7506   un
 14667  7483  7507   un
 14668  7484  7485   un
 14669  7484  7508    1
 14670  7485  7509    1
 14671  7486  7487   un
 14672  7486  7510    1
 14673  7487  7511    1
 14674  7488  7489   un
 14675  7488  7512    1
 14676  7489  7513    1
 14677  7490  7491   un
 14678  7490  7514    1
 14679  7491  7515    1
 14680  7492  7493   un
 14681  7492  7516    1
 14682  7493  7517    1
 14683  7494  7495   un
 14684  7494  7518    1
 14685  7495  7519    1
 14686  7496  7497   un
 14687  7496  7520    1
 14688  7497  7521    1
 14689  7498  7499   un
 14690  7498  7522    1
 14691  7499  7523    1
 14692  7500  7501   un
 14693  7500  7524    1
 14694  7501  7525    1
 14695  7502  7503   un
 14696  7502  7526    1
 14697  7503  7527    1
 14698  7504  7505   un
 14699  7504  7528    1
 14700  7505  7529    1
 14701  7506  7507   un
 14702  7506  7530    1
 14703  7507  7531    1
 14704  7532  7556   un
 14705  7533  7557   un
 14706  7534  7558   un
 14707  7535  7559   un
 14708  7536  7560   un
 14709  7537  7561   un
 14710  7538  7562   un
 14711  7539  7563   un
 14712  7540  7564   un
 14713  7541  7565   un
 14714  7542  7566   un
 14715  7543  7567   un
 14716  7544  7568   un
 14717  7545  7569   un
 14718  7546  7570   un
 14719  7547  7571   un
 14720  7548  7572   un
 14721  7549  7573   un
 14722  7550  7574   un
 14723  7551  7575   un
 14724  7552  7576   un
 14725  7553  7577   un
 14726  7554  7578   un
 14727  7555  7579   un
 14728  7556  7557   un
 14729  7556  7580    1
 14730  7557  7581    1
 14731  7558  7559   un
 14732  7558  7582    1
 14733  7559  7583    1
 14734  7560  7561   un
 14735  7560  7584    1
 14736  7561  7585    1
 14737  7562  7563   un
 14738  7562  7586    1
 14739  7563  7587    1
 14740  7564  7565   un
 14741  7564  7588    1
 14742  7565  7589    1
 14743  7566  7567   un
 14744  7566  7590    1
 14745  7567  7591    1
 14746  7568  7569   un
 14747  7568  7592    1
 14748  7569  7593    1
 14749  7570  7571   un
 14750  7570  7594    1
 14751  7571  7595    1
 14752  7572  7573   un
 14753  7572  7596    1
 14754  7573  7597    1
 14755  7574  7575   un
 14756  7574  7598    1
 14757  7575  7599    1
 14758  7576  7577   un
 14759  7576  7600    1
 14760  7577  7601    1
 14761  7578  7579   un
 14762  7578  7602    1
 14763  7579  7603    1
 14764  7604  7626    1
 14765  7604  7650    1
 14766  7604  7665    1
 14767  7605  7627    1
 14768  7606  7628    1
 14769  7606  7653    1
 14770  7606  7667    1
 14771  7607  7629    1
 14772  7607  7654    1
 14773  7607  7669    1
 14774  7608  7630    1
 14775  7609  7631    1
 14776  7609  7666    1
 14777  7610  7632    1
 14778  7610  7657    1
 14779  7611  7633    1
 14780  7611  7658    1
 14781  7611  7661    1
 14782  7612  7634    1
 14783  7613  7635    1
 14784  7614  7636    1
 14785  7614  7653    1
 14786  7615  7637    1
 14787  7616  7638    1
 14788  7616  7657    1
 14789  7617  7639    1
 14790  7617  7649    1
 14791  7617  7666    1
 14792  7618  7640    1
 14793  7619  7641    1
 14794  7620  7642    1
 14795  7621  7643    1
 14796  7622  7644    1
 14797  7622  7663    1
 14798  7622  7669    1
 14799  7623  7645    1
 14800  7623  7660    1
 14801  7623  7665    1
 14802  7624  7646    1
 14803  7625  7647    1
 14804  7625  7661    1
 14805  7625  7668    1
 14806  7626  7650    1
 14807  7626  7665    1
 14808  7628  7653    1
 14809  7628  7667    1
 14810  7629  7654    1
 14811  7629  7669    1
 14812  7631  7666    1
 14813  7632  7657    1
 14814  7633  7658    1
 14815  7633  7661    1
 14816  7636  7653    1
 14817  7638  7657    1
 14818  7639  7649    1
 14819  7639  7666    1
 14820  7644  7663    1
 14821  7644  7669    1
 14822  7645  7660    1
 14823  7645  7665    1
 14824  7647  7661    1
 14825  7647  7668    1
 14826  7648  7694    1
 14827  7648  7704    1
 14828  7648  7708    1
 14829  7648  7714    1
 14830  7648  7724    1
 14831  7648  7728    1
 14832  7649  7656   un
 14833  7649  7664   un
 14834  7649  7666   un
 14835  7649  7709    1
 14836  7649  7729    1
 14837  7649  7748   un
 14838  7649  7792   un
 14839  7649  8079    1
 14840  7649  8100    1
 14841  7650  7655   un
 14842  7650  7665   un
 14843  7650  7706    1
 14844  7650  7726    1
 14845  7650  7768   un
 14846  7650  7988    1
 14847  7650  8011    1
 14848  7650  8031   un
 14849  7650  8044   un
 14850  7650  8052   un
 14851  7650  8085    1
 14852  7650  8106    1
 14853  7651  7653   un
 14854  7651  7662   un
 14855  7651  7667   un
 14856  7651  7702    1
 14857  7651  7711    1
 14858  7651  7722    1
 14859  7651  7731    1
 14860  7652  7658   un
 14861  7652  7668   un
 14862  7652  7695    1
 14863  7652  7703    1
 14864  7652  7715    1
 14865  7652  7723    1
 14866  7652  8748   un
 14867  7652  8790    1
 14868  7652  8803    1
 14869  7653  7667   un
 14870  7653  7711    1
 14871  7653  7731    1
 14872  7654  7659   un
 14873  7654  7669   un
 14874  7654  7700    1
 14875  7654  7720    1
 14876  7654  8022   un
 14877  7654  8083    1
 14878  7654  8104    1
 14879  7655  7660   un
 14880  7655  7696    1
 14881  7655  7706    1
 14882  7655  7716    1
 14883  7655  7726    1
 14884  7655  8031   un
 14885  7655  8085    1
 14886  7655  8106    1
 14887  7655  8510   un
 14888  7655  8552   un
 14889  7655  8763   un
 14890  7655  8769   un
 14891  7655  8783    1
 14892  7655  8796    1
 14893  7656  7664   un
 14894  7656  7697    1
 14895  7656  7701    1
 14896  7656  7709    1
 14897  7656  7717    1
 14898  7656  7721    1
 14899  7656  7729    1
 14900  7656  7753   un
 14901  7656  7775   un
 14902  7656  7797   un
 14903  7656  8060   un
 14904  7656  8079    1
 14905  7656  8100    1
 14906  7657  7710    1
 14907  7657  7730    1
 14908  7657  8446    1
 14909  7657  8464    1
 14910  7657  8489   un
 14911  7657  8511   un
 14912  7657  8531   un
 14913  7658  7661   un
 14914  7658  7703    1
 14915  7658  7723    1
 14916  7658  8512   un
 14917  7658  8716    1
 14918  7658  8735    1
 14919  7658  8748   un
 14920  7658  8764   un
 14921  7658  8770   un
 14922  7658  8790    1
 14923  7658  8803    1
 14924  7659  7663   un
 14925  7659  7699    1
 14926  7659  7700    1
 14927  7659  7719    1
 14928  7659  7720    1
 14929  7659  7778   un
 14930  7659  7822   un
 14931  7659  8022   un
 14932  7659  8049   un
 14933  7659  8057   un
 14934  7659  8078    1
 14935  7659  8083    1
 14936  7659  8099    1
 14937  7659  8104    1
 14938  7660  7665   un
 14939  7660  7696    1
 14940  7660  7716    1
 14941  7660  7982    1
 14942  7660  8005    1
 14943  7660  8031   un
 14944  7660  8516   un
 14945  7660  8773   un
 14946  7660  8783    1
 14947  7660  8796    1
 14948  7661  7668   un
 14949  7661  8518   un
 14950  7661  8558   un
 14951  7661  8709    1
 14952  7661  8716    1
 14953  7661  8728    1
 14954  7661  8735    1
 14955  7661  8748   un
 14956  7662  7667   un
 14957  7662  7698    1
 14958  7662  7702    1
 14959  7662  7713    1
 14960  7662  7718    1
 14961  7662  7722    1
 14962  7662  7733    1
 14963  7663  7669   un
 14964  7663  7699    1
 14965  7663  7719    1
 14966  7663  7784   un
 14967  7663  8022   un
 14968  7663  8065   un
 14969  7663  8068    1
 14970  7663  8078    1
 14971  7663  8089    1
 14972  7663  8099    1
 14973  7664  7666   un
 14974  7664  7697    1
 14975  7664  7712    1
 14976  7664  7717    1
 14977  7664  7732    1
 14978  7664  8079    1
 14979  7664  8100    1
 14980  7665  7786   un
 14981  7665  7826   un
 14982  7665  7982    1
 14983  7665  7988    1
 14984  7665  8005    1
 14985  7665  8011    1
 14986  7665  8031   un
 14987  7666  7712    1
 14988  7666  7732    1
 14989  7667  7713    1
 14990  7667  7733    1
 14991  7668  7695    1
 14992  7668  7715    1
 14993  7668  8709    1
 14994  7668  8728    1
 14995  7668  8748   un
 14996  7669  8022   un
 14997  7669  8068    1
 14998  7669  8089    1
 14999  7670  8636   un
 15000  7671  8638   un
 15001  7672  7908   un
 15002  7673  7910   un
 15003  7678  8643   un
 15004  7679  8644   un
 15005  7680  7903   un
 15006  7681  7904   un
 15007  7688  7842   un
 15008  7689  7839   un
 15009  7692  8570   un
 15010  7693  8567   un
 15011  7694  7714    1
 15012  7695  7715    1
 15013  7696  7716    1
 15014  7697  7717    1
 15015  7698  7718    1
 15016  7699  7719    1
 15017  7700  7720    1
 15018  7701  7721    1
 15019  7702  7722    1
 15020  7703  7723    1
 15021  7704  7724    1
 15022  7705  7725    1
 15023  7706  7726    1
 15024  7707  7727    1
 15025  7708  7728    1
 15026  7709  7729    1
 15027  7710  7730    1
 15028  7711  7731    1
 15029  7712  7732    1
 15030  7713  7733    1
 15031  7734  7735   un
 15032  7734  7738   un
 15033  7734  7744   un
 15034  7734  7746   un
 15035  7734  7749   un
 15036  7734  7769   un
 15037  7734  7793   un
 15038  7734  7813   un
 15039  7734  7977    1
 15040  7734  7987    1
 15041  7734  7991    1
 15042  7734  7993    1
 15043  7734  8000    1
 15044  7734  8010    1
 15045  7734  8014    1
 15046  7734  8016    1
 15047  7735  7738   un
 15048  7735  7741   un
 15049  7735  7746   un
 15050  7735  7752   un
 15051  7735  7773   un
 15052  7735  7796   un
 15053  7735  7817   un
 15054  7735  7980    1
 15055  7735  7985    1
 15056  7735  7991    1
 15057  7735  7993    1
 15058  7735  8003    1
 15059  7735  8008    1
 15060  7735  8014    1
 15061  7735  8016    1
 15062  7736  7740   un
 15063  7736  7774   un
 15064  7736  7818   un
 15065  7736  7981    1
 15066  7736  7989    1
 15067  7736  8004    1
 15068  7736  8012    1
 15069  7736  8023   un
 15070  7736  8030   un
 15071  7736  8040   un
 15072  7736  8047   un
 15073  7736  8055   un
 15074  7736  8075    1
 15075  7736  8084    1
 15076  7736  8096    1
 15077  7736  8105    1
 15078  7737  7742   un
 15079  7737  7776   un
 15080  7737  7986    1
 15081  7737  8009    1
 15082  7737  8025   un
 15083  7737  8027   un
 15084  7737  8036   un
 15085  7737  8048   un
 15086  7737  8056   un
 15087  7737  8061   un
 15088  7737  8072    1
 15089  7737  8076    1
 15090  7737  8086    1
 15091  7737  8093    1
 15092  7737  8097    1
 15093  7737  8107    1
 15094  7738  7741   un
 15095  7738  7744   un
 15096  7738  7754   un
 15097  7738  7777   un
 15098  7738  7798   un
 15099  7738  7821   un
 15100  7738  7984    1
 15101  7738  7985    1
 15102  7738  7987    1
 15103  7738  7993    1
 15104  7738  8007    1
 15105  7738  8008    1
 15106  7738  8010    1
 15107  7738  8016    1
 15108  7739  7755   un
 15109  7739  7779   un
 15110  7739  7799   un
 15111  7739  7979    1
 15112  7739  7994    1
 15113  7739  8002    1
 15114  7739  8017    1
 15115  7739  8028   un
 15116  7739  8033   un
 15117  7739  8037   un
 15118  7739  8043   un
 15119  7739  8062   un
 15120  7739  8073    1
 15121  7739  8074    1
 15122  7739  8094    1
 15123  7739  8095    1
 15124  7740  7780   un
 15125  7740  7981    1
 15126  7740  8004    1
 15127  7740  8030   un
 15128  7740  8038   un
 15129  7740  8040   un
 15130  7740  8050   un
 15131  7740  8058   un
 15132  7740  8063   un
 15133  7740  8071    1
 15134  7740  8075    1
 15135  7740  8087    1
 15136  7740  8092    1
 15137  7740  8096    1
 15138  7740  8108    1
 15139  7741  7744   un
 15140  7741  7746   un
 15141  7741  7757   un
 15142  7741  7781   un
 15143  7741  7801   un
 15144  7741  7823   un
 15145  7741  7980    1
 15146  7741  7984    1
 15147  7741  7985    1
 15148  7741  7996    1
 15149  7741  8003    1
 15150  7741  8007    1
 15151  7741  8008    1
 15152  7741  8019    1
 15153  7742  7782   un
 15154  7742  7824   un
 15155  7742  7978    1
 15156  7742  7986    1
 15157  7742  8001    1
 15158  7742  8009    1
 15159  7742  8027   un
 15160  7742  8036   un
 15161  7742  8041   un
 15162  7742  8051   un
 15163  7742  8059   un
 15164  7742  8072    1
 15165  7742  8088    1
 15166  7742  8093    1
 15167  7742  8109    1
 15168  7743  7759   un
 15169  7743  7783   un
 15170  7743  7803   un
 15171  7743  7983    1
 15172  7743  7997    1
 15173  7743  8006    1
 15174  7743  8020    1
 15175  7743  8026   un
 15176  7743  8032   un
 15177  7743  8035   un
 15178  7743  8042   un
 15179  7743  8064   un
 15180  7743  8069    1
 15181  7743  8077    1
 15182  7743  8090    1
 15183  7743  8098    1
 15184  7744  7746   un
 15185  7744  7761   un
 15186  7744  7785   un
 15187  7744  7805   un
 15188  7744  7825   un
 15189  7744  7977    1
 15190  7744  7984    1
 15191  7744  7987    1
 15192  7744  7996    1
 15193  7744  8000    1
 15194  7744  8007    1
 15195  7744  8010    1
 15196  7744  8019    1
 15197  7745  7763   un
 15198  7745  7787   un
 15199  7745  7807   un
 15200  7745  7976    1
 15201  7745  7995    1
 15202  7745  7999    1
 15203  7745  8018    1
 15204  7745  8024   un
 15205  7745  8029   un
 15206  7745  8034   un
 15207  7745  8039   un
 15208  7745  8066   un
 15209  7745  8070    1
 15210  7745  8080    1
 15211  7745  8091    1
 15212  7745  8101    1
 15213  7746  7765   un
 15214  7746  7789   un
 15215  7746  7809   un
 15216  7746  7829   un
 15217  7746  7977    1
 15218  7746  7980    1
 15219  7746  7991    1
 15220  7746  7996    1
 15221  7746  8000    1
 15222  7746  8003    1
 15223  7746  8014    1
 15224  7746  8019    1
 15225  7747  7903   un
 15226  7748  7904   un
 15227  7749  7905   un
 15228  7750  7906   un
 15229  7751  7907   un
 15230  7752  7909   un
 15231  7753  7911   un
 15232  7754  7913   un
 15233  7755  7915   un
 15234  7756  7916   un
 15235  7756  8034   un
 15236  7757  7917   un
 15237  7758  7918   un
 15238  7758  8035   un
 15239  7759  7919   un
 15240  7760  7920   un
 15241  7760  8037   un
 15242  7761  7921   un
 15243  7762  7922   un
 15244  7762  8039   un
 15245  7763  7923   un
 15246  7764  7924   un
 15247  7764  8042   un
 15248  7765  7925   un
 15249  7766  7926   un
 15250  7766  8043   un
 15251  7767  7831   un
 15252  7768  7832   un
 15253  7769  7833   un
 15254  7770  7834   un
 15255  7771  7835   un
 15256  7772  7836   un
 15257  7773  7837   un
 15258  7774  7838   un
 15259  7775  7839   un
 15260  7776  7840   un
 15261  7777  7841   un
 15262  7778  7842   un
 15263  7779  7843   un
 15264  7780  7844   un
 15265  7781  7845   un
 15266  7782  7846   un
 15267  7783  7847   un
 15268  7784  7848   un
 15269  7785  7849   un
 15270  7786  7850   un
 15271  7787  7851   un
 15272  7788  7852   un
 15273  7789  7853   un
 15274  7790  7854   un
 15275  7791  7914   un
 15276  7792  7911   un
 15277  7793  7913   un
 15278  7794  7912   un
 15279  7795  7906   un
 15280  7796  7905   un
 15281  7797  7910   un
 15282  7798  7909   un
 15283  7799  7926   un
 15284  7800  7923   un
 15285  7800  8034   un
 15286  7801  7925   un
 15287  7802  7924   un
 15288  7802  8035   un
 15289  7803  7918   un
 15290  7804  7915   un
 15291  7804  8037   un
 15292  7805  7917   un
 15293  7806  7916   un
 15294  7806  8039   un
 15295  7807  7922   un
 15296  7808  7919   un
 15297  7808  8042   un
 15298  7809  7921   un
 15299  7810  7920   un
 15300  7810  8043   un
 15301  7811  7854   un
 15302  7811  8021   un
 15303  7812  7851   un
 15304  7812  8024   un
 15305  7813  7853   un
 15306  7814  7852   un
 15307  7815  7846   un
 15308  7815  8027   un
 15309  7816  7843   un
 15310  7816  8028   un
 15311  7817  7845   un
 15312  7818  7844   un
 15313  7819  7850   un
 15314  7819  8031   un
 15315  7820  7847   un
 15316  7820  8032   un
 15317  7821  7849   un
 15318  7822  7848   un
 15319  7823  7841   un
 15320  7824  7840   un
 15321  7825  7833   un
 15322  7826  7832   un
 15323  7827  7838   un
 15324  7827  8040   un
 15325  7828  7835   un
 15326  7829  7837   un
 15327  7830  7836   un
 15328  7831  7855   un
 15329  7832  7856   un
 15330  7833  7857   un
 15331  7834  7858   un
 15332  7835  7859   un
 15333  7836  7860   un
 15334  7837  7861   un
 15335  7838  7862   un
 15336  7839  7863   un
 15337  7840  7864   un
 15338  7841  7865   un
 15339  7842  7866   un
 15340  7843  7867   un
 15341  7844  7868   un
 15342  7845  7869   un
 15343  7846  7870   un
 15344  7847  7871   un
 15345  7848  7872   un
 15346  7849  7873   un
 15347  7850  7874   un
 15348  7851  7875   un
 15349  7852  7876   un
 15350  7853  7877   un
 15351  7854  7878   un
 15352  7855  7856   un
 15353  7855  7879    1
 15354  7856  7880    1
 15355  7857  7858   un
 15356  7857  7881    1
 15357  7858  7882    1
 15358  7859  7860   un
 15359  7859  7883    1
 15360  7860  7884    1
 15361  7861  7862   un
 15362  7861  7885    1
 15363  7862  7886    1
 15364  7863  7864   un
 15365  7863  7887    1
 15366  7864  7888    1
 15367  7865  7866   un
 15368  7865  7889    1
 15369  7866  7890    1
 15370  7867  7868   un
 15371  7867  7891    1
 15372  7868  7892    1
 15373  7869  7870   un
 15374  7869  7893    1
 15375  7870  7894    1
 15376  7871  7872   un
 15377  7871  7895    1
 15378  7872  7896    1
 15379  7873  7874   un
 15380  7873  7897    1
 15381  7874  7898    1
 15382  7875  7876   un
 15383  7875  7899    1
 15384  7876  7900    1
 15385  7877  7878   un
 15386  7877  7901    1
 15387  7878  7902    1
 15388  7903  7927   un
 15389  7904  7928   un
 15390  7905  7929   un
 15391  7906  7930   un
 15392  7907  7931   un
 15393  7908  7932   un
 15394  7909  7933   un
 15395  7910  7934   un
 15396  7911  7935   un
 15397  7912  7936   un
 15398  7913  7937   un
 15399  7914  7938   un
 15400  7915  7939   un
 15401  7916  7940   un
 15402  7917  7941   un
 15403  7918  7942   un
 15404  7919  7943   un
 15405  7920  7944   un
 15406  7921  7945   un
 15407  7922  7946   un
 15408  7923  7947   un
 15409  7924  7948   un
 15410  7925  7949   un
 15411  7926  7950   un
 15412  7927  7928   un
 15413  7927  7951    1
 15414  7928  7952    1
 15415  7929  7930   un
 15416  7929  7953    1
 15417  7930  7954    1
 15418  7931  7932   un
 15419  7931  7955    1
 15420  7932  7956    1
 15421  7933  7934   un
 15422  7933  7957    1
 15423  7934  7958    1
 15424  7935  7936   un
 15425  7935  7959    1
 15426  7936  7960    1
 15427  7937  7938   un
 15428  7937  7961    1
 15429  7938  7962    1
 15430  7939  7940   un
 15431  7939  7963    1
 15432  7940  7964    1
 15433  7941  7942   un
 15434  7941  7965    1
 15435  7942  7966    1
 15436  7943  7944   un
 15437  7943  7967    1
 15438  7944  7968    1
 15439  7945  7946   un
 15440  7945  7969    1
 15441  7946  7970    1
 15442  7947  7948   un
 15443  7947  7971    1
 15444  7948  7972    1
 15445  7949  7950   un
 15446  7949  7973    1
 15447  7950  7974    1
 15448  7975  7998    1
 15449  7975  8021    1
 15450  7976  7999    1
 15451  7976  8024    1
 15452  7976  8039    1
 15453  7977  8000    1
 15454  7978  8001    1
 15455  7978  8027    1
 15456  7978  8041    1
 15457  7979  8002    1
 15458  7979  8028    1
 15459  7979  8043    1
 15460  7980  8003    1
 15461  7981  8004    1
 15462  7981  8040    1
 15463  7982  8005    1
 15464  7982  8031    1
 15465  7983  8006    1
 15466  7983  8032    1
 15467  7983  8035    1
 15468  7984  8007    1
 15469  7985  8008    1
 15470  7986  8009    1
 15471  7986  8027    1
 15472  7987  8010    1
 15473  7988  8011    1
 15474  7988  8031    1
 15475  7989  8012    1
 15476  7989  8023    1
 15477  7989  8040    1
 15478  7990  8013    1
 15479  7991  8014    1
 15480  7992  8015    1
 15481  7992  8021    1
 15482  7993  8016    1
 15483  7994  8017    1
 15484  7994  8037    1
 15485  7994  8043    1
 15486  7995  8018    1
 15487  7995  8034    1
 15488  7995  8039    1
 15489  7996  8019    1
 15490  7997  8020    1
 15491  7997  8035    1
 15492  7997  8042    1
 15493  7998  8021    1
 15494  7999  8024    1
 15495  7999  8039    1
 15496  8001  8027    1
 15497  8001  8041    1
 15498  8002  8028    1
 15499  8002  8043    1
 15500  8004  8040    1
 15501  8005  8031    1
 15502  8006  8032    1
 15503  8006  8035    1
 15504  8009  8027    1
 15505  8011  8031    1
 15506  8012  8023    1
 15507  8012  8040    1
 15508  8015  8021    1
 15509  8017  8037    1
 15510  8017  8043    1
 15511  8018  8034    1
 15512  8018  8039    1
 15513  8020  8035    1
 15514  8020  8042    1
 15515  8021  8082    1
 15516  8021  8103    1
 15517  8022  8068    1
 15518  8022  8078    1
 15519  8022  8083    1
 15520  8022  8089    1
 15521  8022  8099    1
 15522  8022  8104    1
 15523  8023  8030   un
 15524  8023  8038   un
 15525  8023  8040   un
 15526  8023  8084    1
 15527  8023  8105    1
 15528  8024  8029   un
 15529  8024  8039   un
 15530  8024  8080    1
 15531  8024  8101    1
 15532  8024  9082   un
 15533  8024  9123    1
 15534  8024  9139    1
 15535  8025  8027   un
 15536  8025  8036   un
 15537  8025  8041   un
 15538  8025  8076    1
 15539  8025  8086    1
 15540  8025  8097    1
 15541  8025  8107    1
 15542  8026  8032   un
 15543  8026  8042   un
 15544  8026  8069    1
 15545  8026  8077    1
 15546  8026  8090    1
 15547  8026  8098    1
 15548  8026  9079   un
 15549  8026  9125    1
 15550  8026  9141    1
 15551  8027  8041   un
 15552  8027  8086    1
 15553  8027  8107    1
 15554  8028  8033   un
 15555  8028  8043   un
 15556  8028  8074    1
 15557  8028  8095    1
 15558  8029  8034   un
 15559  8029  8070    1
 15560  8029  8080    1
 15561  8029  8091    1
 15562  8029  8101    1
 15563  8029  8838   un
 15564  8029  8880   un
 15565  8029  9082   un
 15566  8029  9095   un
 15567  8029  9101   un
 15568  8029  9116    1
 15569  8029  9123    1
 15570  8029  9132    1
 15571  8029  9139    1
 15572  8030  8038   un
 15573  8030  8071    1
 15574  8030  8075    1
 15575  8030  8084    1
 15576  8030  8092    1
 15577  8030  8096    1
 15578  8030  8105    1
 15579  8031  8085    1
 15580  8031  8106    1
 15581  8031  8783    1
 15582  8031  8796    1
 15583  8031  8817   un
 15584  8031  8839   un
 15585  8031  8859   un
 15586  8032  8035   un
 15587  8032  8077    1
 15588  8032  8098    1
 15589  8032  8840   un
 15590  8032  9045    1
 15591  8032  9065    1
 15592  8032  9079   un
 15593  8032  9096   un
 15594  8032  9102   un
 15595  8032  9125    1
 15596  8032  9141    1
 15597  8033  8037   un
 15598  8033  8073    1
 15599  8033  8074    1
 15600  8033  8094    1
 15601  8033  8095    1
 15602  8034  8039   un
 15603  8034  8070    1
 15604  8034  8091    1
 15605  8034  8844   un
 15606  8034  9082   un
 15607  8034  9105   un
 15608  8034  9113    1
 15609  8034  9116    1
 15610  8034  9129    1
 15611  8034  9132    1
 15612  8035  8042   un
 15613  8035  8846   un
 15614  8035  8886   un
 15615  8035  9038    1
 15616  8035  9045    1
 15617  8035  9058    1
 15618  8035  9065    1
 15619  8035  9079   un
 15620  8036  8041   un
 15621  8036  8072    1
 15622  8036  8076    1
 15623  8036  8088    1
 15624  8036  8093    1
 15625  8036  8097    1
 15626  8036  8109    1
 15627  8037  8043   un
 15628  8037  8073    1
 15629  8037  8094    1
 15630  8038  8040   un
 15631  8038  8071    1
 15632  8038  8087    1
 15633  8038  8092    1
 15634  8038  8108    1
 15635  8039  9082   un
 15636  8039  9113    1
 15637  8039  9129    1
 15638  8040  8087    1
 15639  8040  8108    1
 15640  8041  8088    1
 15641  8041  8109    1
 15642  8042  8069    1
 15643  8042  8090    1
 15644  8042  9038    1
 15645  8042  9058    1
 15646  8042  9079   un
 15647  8044  8964   un
 15648  8045  8966   un
 15649  8052  8971   un
 15650  8053  8972   un
 15651  8066  8898   un
 15652  8067  8895   un
 15653  8068  8089    1
 15654  8069  8090    1
 15655  8070  8091    1
 15656  8071  8092    1
 15657  8072  8093    1
 15658  8073  8094    1
 15659  8074  8095    1
 15660  8075  8096    1
 15661  8076  8097    1
 15662  8077  8098    1
 15663  8078  8099    1
 15664  8079  8100    1
 15665  8080  8101    1
 15666  8081  8102    1
 15667  8082  8103    1
 15668  8083  8104    1
 15669  8084  8105    1
 15670  8085  8106    1
 15671  8086  8107    1
 15672  8087  8108    1
 15673  8088  8109    1
 15674  8110  8120   un
 15675  8110  8144   un
 15676  8110  8365    1
 15677  8110  8387    1
 15678  8110  8401   un
 15679  8110  8403   un
 15680  8110  8412   un
 15681  8110  8416   un
 15682  8110  8424   un
 15683  8110  8433   un
 15684  8110  8441    1
 15685  8110  8449    1
 15686  8110  8454    1
 15687  8110  8459    1
 15688  8110  8467    1
 15689  8110  8472    1
 15690  8111  8112   un
 15691  8111  8113   un
 15692  8111  8119   un
 15693  8111  8122   un
 15694  8111  8124   un
 15695  8111  8145   un
 15696  8111  8168   un
 15697  8111  8189   un
 15698  8111  8352    1
 15699  8111  8364    1
 15700  8111  8366    1
 15701  8111  8368    1
 15702  8111  8374    1
 15703  8111  8386    1
 15704  8111  8388    1
 15705  8111  8390    1
 15706  8112  8113   un
 15707  8112  8116   un
 15708  8112  8122   un
 15709  8112  8127   un
 15710  8112  8149   un
 15711  8112  8171   un
 15712  8112  8193   un
 15713  8112  8355    1
 15714  8112  8362    1
 15715  8112  8366    1
 15716  8112  8368    1
 15717  8112  8377    1
 15718  8112  8384    1
 15719  8112  8388    1
 15720  8112  8390    1
 15721  8113  8116   un
 15722  8113  8119   un
 15723  8113  8130   un
 15724  8113  8153   un
 15725  8113  8174   un
 15726  8113  8197   un
 15727  8113  8358    1
 15728  8113  8362    1
 15729  8113  8364    1
 15730  8113  8368    1
 15731  8113  8380    1
 15732  8113  8384    1
 15733  8113  8386    1
 15734  8113  8390    1
 15735  8114  8118   un
 15736  8114  8154   un
 15737  8114  8198   un
 15738  8114  8359    1
 15739  8114  8360    1
 15740  8114  8381    1
 15741  8114  8382    1
 15742  8114  8395   un
 15743  8114  8399   un
 15744  8114  8406   un
 15745  8114  8421   un
 15746  8114  8429   un
 15747  8114  8448    1
 15748  8114  8453    1
 15749  8114  8466    1
 15750  8114  8471    1
 15751  8115  8131   un
 15752  8115  8155   un
 15753  8115  8175   un
 15754  8115  8354    1
 15755  8115  8369    1
 15756  8115  8376    1
 15757  8115  8391    1
 15758  8115  8400   un
 15759  8115  8405   un
 15760  8115  8410   un
 15761  8115  8415   un
 15762  8115  8434   un
 15763  8115  8444    1
 15764  8115  8445    1
 15765  8115  8462    1
 15766  8115  8463    1
 15767  8116  8119   un
 15768  8116  8122   un
 15769  8116  8133   un
 15770  8116  8157   un
 15771  8116  8177   un
 15772  8116  8201   un
 15773  8116  8355    1
 15774  8116  8358    1
 15775  8116  8362    1
 15776  8116  8371    1
 15777  8116  8377    1
 15778  8116  8380    1
 15779  8116  8384    1
 15780  8116  8393    1
 15781  8117  8135   un
 15782  8117  8159   un
 15783  8117  8179   un
 15784  8117  8357    1
 15785  8117  8372    1
 15786  8117  8379    1
 15787  8117  8394    1
 15788  8117  8397   un
 15789  8117  8404   un
 15790  8117  8409   un
 15791  8117  8413   un
 15792  8117  8436   un
 15793  8117  8442    1
 15794  8117  8447    1
 15795  8117  8460    1
 15796  8117  8465    1
 15797  8118  8160   un
 15798  8118  8359    1
 15799  8118  8381    1
 15800  8118  8395   un
 15801  8118  8406   un
 15802  8118  8414   un
 15803  8118  8422   un
 15804  8118  8430   un
 15805  8118  8437   un
 15806  8118  8440    1
 15807  8118  8448    1
 15808  8118  8456    1
 15809  8118  8458    1
 15810  8118  8466    1
 15811  8118  8474    1
 15812  8119  8122   un
 15813  8119  8137   un
 15814  8119  8161   un
 15815  8119  8181   un
 15816  8119  8203   un
 15817  8119  8352    1
 15818  8119  8358    1
 15819  8119  8364    1
 15820  8119  8371    1
 15821  8119  8374    1
 15822  8119  8380    1
 15823  8119  8386    1
 15824  8119  8393    1
 15825  8120  8162   un
 15826  8120  8204   un
 15827  8120  8356    1
 15828  8120  8365    1
 15829  8120  8378    1
 15830  8120  8387    1
 15831  8120  8403   un
 15832  8120  8407   un
 15833  8120  8412   un
 15834  8120  8423   un
 15835  8120  8431   un
 15836  8120  8441    1
 15837  8120  8457    1
 15838  8120  8459    1
 15839  8120  8475    1
 15840  8121  8139   un
 15841  8121  8163   un
 15842  8121  8183   un
 15843  8121  8351    1
 15844  8121  8370    1
 15845  8121  8373    1
 15846  8121  8392    1
 15847  8121  8396   un
 15848  8121  8402   un
 15849  8121  8408   un
 15850  8121  8411   un
 15851  8121  8438   un
 15852  8121  8443    1
 15853  8121  8450    1
 15854  8121  8461    1
 15855  8121  8468    1
 15856  8122  8141   un
 15857  8122  8165   un
 15858  8122  8185   un
 15859  8122  8205   un
 15860  8122  8352    1
 15861  8122  8355    1
 15862  8122  8366    1
 15863  8122  8371    1
 15864  8122  8374    1
 15865  8122  8377    1
 15866  8122  8388    1
 15867  8122  8393    1
 15868  8123  8279   un
 15869  8124  8281   un
 15870  8125  8283   un
 15871  8126  8284   un
 15872  8127  8285   un
 15873  8128  8286   un
 15874  8129  8287   un
 15875  8130  8289   un
 15876  8131  8291   un
 15877  8132  8292   un
 15878  8132  8408   un
 15879  8133  8293   un
 15880  8134  8294   un
 15881  8134  8409   un
 15882  8135  8295   un
 15883  8136  8296   un
 15884  8136  8410   un
 15885  8137  8297   un
 15886  8138  8298   un
 15887  8138  8411   un
 15888  8139  8299   un
 15889  8140  8300   un
 15890  8140  8413   un
 15891  8141  8301   un
 15892  8142  8302   un
 15893  8142  8415   un
 15894  8143  8207   un
 15895  8144  8208   un
 15896  8145  8209   un
 15897  8146  8210   un
 15898  8147  8211   un
 15899  8148  8212   un
 15900  8149  8213   un
 15901  8150  8214   un
 15902  8151  8215   un
 15903  8152  8216   un
 15904  8153  8217   un
 15905  8154  8218   un
 15906  8155  8219   un
 15907  8156  8220   un
 15908  8157  8221   un
 15909  8158  8222   un
 15910  8159  8223   un
 15911  8160  8224   un
 15912  8161  8225   un
 15913  8162  8226   un
 15914  8163  8227   un
 15915  8164  8228   un
 15916  8165  8229   un
 15917  8166  8230   un
 15918  8167  8290   un
 15919  8168  8289   un
 15920  8169  8282   un
 15921  8170  8279   un
 15922  8171  8281   un
 15923  8172  8280   un
 15924  8173  8286   un
 15925  8174  8285   un
 15926  8175  8302   un
 15927  8176  8299   un
 15928  8176  8408   un
 15929  8177  8301   un
 15930  8178  8300   un
 15931  8178  8409   un
 15932  8179  8294   un
 15933  8180  8291   un
 15934  8180  8410   un
 15935  8181  8293   un
 15936  8182  8292   un
 15937  8182  8411   un
 15938  8183  8298   un
 15939  8184  8295   un
 15940  8184  8413   un
 15941  8185  8297   un
 15942  8186  8296   un
 15943  8186  8415   un
 15944  8187  8230   un
 15945  8188  8227   un
 15946  8188  8396   un
 15947  8189  8229   un
 15948  8190  8228   un
 15949  8191  8222   un
 15950  8191  8398   un
 15951  8192  8219   un
 15952  8192  8400   un
 15953  8193  8221   un
 15954  8194  8220   un
 15955  8195  8226   un
 15956  8195  8403   un
 15957  8196  8223   un
 15958  8196  8404   un
 15959  8197  8225   un
 15960  8198  8224   un
 15961  8199  8218   un
 15962  8199  8406   un
 15963  8200  8215   un
 15964  8201  8217   un
 15965  8202  8216   un
 15966  8203  8209   un
 15967  8204  8208   un
 15968  8205  8213   un
 15969  8206  8212   un
 15970  8207  8231   un
 15971  8208  8232   un
 15972  8209  8233   un
 15973  8210  8234   un
 15974  8211  8235   un
 15975  8212  8236   un
 15976  8213  8237   un
 15977  8214  8238   un
 15978  8215  8239   un
 15979  8216  8240   un
 15980  8217  8241   un
 15981  8218  8242   un
 15982  8219  8243   un
 15983  8220  8244   un
 15984  8221  8245   un
 15985  8222  8246   un
 15986  8223  8247   un
 15987  8224  8248   un
 15988  8225  8249   un
 15989  8226  8250   un
 15990  8227  8251   un
 15991  8228  8252   un
 15992  8229  8253   un
 15993  8230  8254   un
 15994  8231  8232   un
 15995  8231  8255    1
 15996  8232  8256    1
 15997  8233  8234   un
 15998  8233  8257    1
 15999  8234  8258    1
 16000  8235  8236   un
 16001  8235  8259    1
 16002  8236  8260    1
 16003  8237  8238   un
 16004  8237  8261    1
 16005  8238  8262    1
 16006  8239  8240   un
 16007  8239  8263    1
 16008  8240  8264    1
 16009  8241  8242   un
 16010  8241  8265    1
 16011  8242  8266    1
 16012  8243  8244   un
 16013  8243  8267    1
 16014  8244  8268    1
 16015  8245  8246   un
 16016  8245  8269    1
 16017  8246  8270    1
 16018  8247  8248   un
 16019  8247  8271    1
 16020  8248  8272    1
 16021  8249  8250   un
 16022  8249  8273    1
 16023  8250  8274    1
 16024  8251  8252   un
 16025  8251  8275    1
 16026  8252  8276    1
 16027  8253  8254   un
 16028  8253  8277    1
 16029  8254  8278    1
 16030  8279  8303   un
 16031  8280  8304   un
 16032  8281  8305   un
 16033  8282  8306   un
 16034  8283  8307   un
 16035  8284  8308   un
 16036  8285  8309   un
 16037  8286  8310   un
 16038  8287  8311   un
 16039  8288  8312   un
 16040  8289  8313   un
 16041  8290  8314   un
 16042  8291  8315   un
 16043  8292  8316   un
 16044  8293  8317   un
 16045  8294  8318   un
 16046  8295  8319   un
 16047  8296  8320   un
 16048  8297  8321   un
 16049  8298  8322   un
 16050  8299  8323   un
 16051  8300  8324   un
 16052  8301  8325   un
 16053  8302  8326   un
 16054  8303  8304   un
 16055  8303  8327    1
 16056  8304  8328    1
 16057  8305  8306   un
 16058  8305  8329    1
 16059  8306  8330    1
 16060  8307  8308   un
 16061  8307  8331    1
 16062  8308  8332    1
 16063  8309  8310   un
 16064  8309  8333    1
 16065  8310  8334    1
 16066  8311  8312   un
 16067  8311  8335    1
 16068  8312  8336    1
 16069  8313  8314   un
 16070  8313  8337    1
 16071  8314  8338    1
 16072  8315  8316   un
 16073  8315  8339    1
 16074  8316  8340    1
 16075  8317  8318   un
 16076  8317  8341    1
 16077  8318  8342    1
 16078  8319  8320   un
 16079  8319  8343    1
 16080  8320  8344    1
 16081  8321  8322   un
 16082  8321  8345    1
 16083  8322  8346    1
 16084  8323  8324   un
 16085  8323  8347    1
 16086  8324  8348    1
 16087  8325  8326   un
 16088  8325  8349    1
 16089  8326  8350    1
 16090  8351  8373    1
 16091  8351  8396    1
 16092  8351  8411    1
 16093  8352  8374    1
 16094  8353  8375    1
 16095  8353  8398    1
 16096  8354  8376    1
 16097  8354  8400    1
 16098  8354  8415    1
 16099  8355  8377    1
 16100  8356  8378    1
 16101  8356  8403    1
 16102  8356  8407    1
 16103  8357  8379    1
 16104  8357  8404    1
 16105  8357  8409    1
 16106  8358  8380    1
 16107  8359  8381    1
 16108  8359  8406    1
 16109  8360  8382    1
 16110  8360  8399    1
 16111  8360  8406    1
 16112  8361  8383    1
 16113  8362  8384    1
 16114  8363  8385    1
 16115  8363  8398    1
 16116  8364  8386    1
 16117  8365  8387    1
 16118  8365  8403    1
 16119  8366  8388    1
 16120  8367  8389    1
 16121  8368  8390    1
 16122  8369  8391    1
 16123  8369  8410    1
 16124  8369  8415    1
 16125  8370  8392    1
 16126  8370  8408    1
 16127  8370  8411    1
 16128  8371  8393    1
 16129  8372  8394    1
 16130  8372  8409    1
 16131  8372  8413    1
 16132  8373  8396    1
 16133  8373  8411    1
 16134  8375  8398    1
 16135  8376  8400    1
 16136  8376  8415    1
 16137  8378  8403    1
 16138  8378  8407    1
 16139  8379  8404    1
 16140  8379  8409    1
 16141  8381  8406    1
 16142  8382  8399    1
 16143  8382  8406    1
 16144  8385  8398    1
 16145  8387  8403    1
 16146  8391  8410    1
 16147  8391  8415    1
 16148  8392  8408    1
 16149  8392  8411    1
 16150  8394  8409    1
 16151  8394  8413    1
 16152  8395  8399   un
 16153  8395  8414   un
 16154  8395  8440    1
 16155  8395  8448    1
 16156  8395  8453    1
 16157  8395  8458    1
 16158  8395  8466    1
 16159  8395  8471    1
 16160  8396  8402   un
 16161  8396  8411   un
 16162  8396  8450    1
 16163  8396  8468    1
 16164  8396  8504   un
 16165  8396  8718    1
 16166  8396  8737    1
 16167  8396  8751   un
 16168  8396  8760   un
 16169  8396  8766   un
 16170  8396  8789    1
 16171  8396  8802    1
 16172  8397  8404   un
 16173  8397  8413   un
 16174  8397  8442    1
 16175  8397  8447    1
 16176  8397  8460    1
 16177  8397  8465    1
 16178  8397  9431   un
 16179  8397  9490    1
 16180  8397  9510    1
 16181  8398  8455    1
 16182  8398  8473    1
 16183  8399  8406   un
 16184  8399  8414   un
 16185  8399  8453    1
 16186  8399  8471    1
 16187  8400  8405   un
 16188  8400  8415   un
 16189  8400  8445    1
 16190  8400  8463    1
 16191  8400  8745   un
 16192  8400  8788    1
 16193  8400  8801    1
 16194  8401  8403   un
 16195  8401  8407   un
 16196  8401  8412   un
 16197  8401  8449    1
 16198  8401  8454    1
 16199  8401  8467    1
 16200  8401  8472    1
 16201  8401  9160   un
 16202  8401  9204   un
 16203  8401  9393    1
 16204  8401  9415    1
 16205  8402  8408   un
 16206  8402  8443    1
 16207  8402  8450    1
 16208  8402  8461    1
 16209  8402  8468    1
 16210  8402  8751   un
 16211  8402  8789    1
 16212  8402  8802    1
 16213  8402  9182   un
 16214  8402  9226   un
 16215  8402  9452   un
 16216  8402  9460   un
 16217  8402  9480    1
 16218  8402  9500    1
 16219  8403  8407   un
 16220  8403  8454    1
 16221  8403  8472    1
 16222  8403  9161   un
 16223  8403  9183   un
 16224  8403  9205   un
 16225  8403  9393    1
 16226  8403  9415    1
 16227  8404  8409   un
 16228  8404  8447    1
 16229  8404  8465    1
 16230  8404  9184   un
 16231  8404  9395    1
 16232  8404  9417    1
 16233  8404  9431   un
 16234  8404  9453   un
 16235  8404  9461   un
 16236  8404  9490    1
 16237  8404  9510    1
 16238  8405  8410   un
 16239  8405  8444    1
 16240  8405  8445    1
 16241  8405  8462    1
 16242  8405  8463    1
 16243  8405  8514   un
 16244  8405  8556   un
 16245  8405  8745   un
 16246  8405  8765   un
 16247  8405  8771   un
 16248  8405  8785    1
 16249  8405  8788    1
 16250  8405  8798    1
 16251  8405  8801    1
 16252  8406  8414   un
 16253  8406  8456    1
 16254  8406  8474    1
 16255  8407  8412   un
 16256  8407  8457    1
 16257  8407  8475    1
 16258  8407  9232   un
 16259  8407  9393    1
 16260  8407  9415    1
 16261  8408  8411   un
 16262  8408  8443    1
 16263  8408  8461    1
 16264  8408  8712    1
 16265  8408  8731    1
 16266  8408  8751   un
 16267  8408  9188   un
 16268  8408  9468   un
 16269  8408  9480    1
 16270  8408  9500    1
 16271  8409  8413   un
 16272  8409  9190   un
 16273  8409  9234   un
 16274  8409  9385    1
 16275  8409  9395    1
 16276  8409  9407    1
 16277  8409  9417    1
 16278  8409  9431   un
 16279  8410  8415   un
 16280  8410  8444    1
 16281  8410  8462    1
 16282  8410  8520   un
 16283  8410  8745   un
 16284  8410  8775   un
 16285  8410  8778    1
 16286  8410  8785    1
 16287  8410  8791    1
 16288  8410  8798    1
 16289  8411  8522   un
 16290  8411  8560   un
 16291  8411  8712    1
 16292  8411  8718    1
 16293  8411  8731    1
 16294  8411  8737    1
 16295  8411  8751   un
 16296  8412  8441    1
 16297  8412  8449    1
 16298  8412  8457    1
 16299  8412  8459    1
 16300  8412  8467    1
 16301  8412  8475    1
 16302  8413  8442    1
 16303  8413  8460    1
 16304  8413  9385    1
 16305  8413  9407    1
 16306  8413  9431   un
 16307  8414  8440    1
 16308  8414  8456    1
 16309  8414  8458    1
 16310  8414  8474    1
 16311  8415  8745   un
 16312  8415  8778    1
 16313  8415  8791    1
 16314  8416  9312   un
 16315  8417  9314   un
 16316  8418  8640   un
 16317  8419  8642   un
 16318  8424  9319   un
 16319  8425  9320   un
 16320  8426  8635   un
 16321  8427  8636   un
 16322  8434  8574   un
 16323  8435  8571   un
 16324  8438  9246   un
 16325  8439  9243   un
 16326  8440  8458    1
 16327  8441  8459    1
 16328  8442  8460    1
 16329  8443  8461    1
 16330  8444  8462    1
 16331  8445  8463    1
 16332  8446  8464    1
 16333  8447  8465    1
 16334  8448  8466    1
 16335  8449  8467    1
 16336  8450  8468    1
 16337  8451  8469    1
 16338  8452  8470    1
 16339  8453  8471    1
 16340  8454  8472    1
 16341  8455  8473    1
 16342  8456  8474    1
 16343  8457  8475    1
 16344  8476  8477   un
 16345  8476  8478   un
 16346  8476  8482   un
 16347  8476  8484   un
 16348  8476  8486   un
 16349  8476  8505   un
 16350  8476  8528   un
 16351  8476  8547   un
 16352  8476  8708    1
 16353  8476  8717    1
 16354  8476  8719    1
 16355  8476  8721    1
 16356  8476  8727    1
 16357  8476  8736    1
 16358  8476  8738    1
 16359  8476  8740    1
 16360  8477  8478   un
 16361  8477  8480   un
 16362  8477  8484   un
 16363  8477  8488   un
 16364  8477  8509   un
 16365  8477  8530   un
 16366  8477  8551   un
 16367  8477  8711    1
 16368  8477  8715    1
 16369  8477  8719    1
 16370  8477  8721    1
 16371  8477  8730    1
 16372  8477  8734    1
 16373  8477  8738    1
 16374  8477  8740    1
 16375  8478  8480   un
 16376  8478  8482   un
 16377  8478  8490   un
 16378  8478  8513   un
 16379  8478  8532   un
 16380  8478  8555   un
 16381  8478  8714    1
 16382  8478  8715    1
 16383  8478  8717    1
 16384  8478  8721    1
 16385  8478  8733    1
 16386  8478  8734    1
 16387  8478  8736    1
 16388  8478  8740    1
 16389  8479  8491   un
 16390  8479  8515   un
 16391  8479  8533   un
 16392  8479  8710    1
 16393  8479  8722    1
 16394  8479  8729    1
 16395  8479  8741    1
 16396  8479  8749   un
 16397  8479  8753   un
 16398  8479  8756   un
 16399  8479  8759   un
 16400  8479  8772   un
 16401  8479  8781    1
 16402  8479  8782    1
 16403  8479  8794    1
 16404  8479  8795    1
 16405  8480  8482   un
 16406  8480  8484   un
 16407  8480  8493   un
 16408  8480  8517   un
 16409  8480  8535   un
 16410  8480  8557   un
 16411  8480  8711    1
 16412  8480  8714    1
 16413  8480  8715    1
 16414  8480  8724    1
 16415  8480  8730    1
 16416  8480  8733    1
 16417  8480  8734    1
 16418  8480  8743    1
 16419  8481  8495   un
 16420  8481  8519   un
 16421  8481  8537   un
 16422  8481  8713    1
 16423  8481  8725    1
 16424  8481  8732    1
 16425  8481  8744    1
 16426  8481  8747   un
 16427  8481  8752   un
 16428  8481  8755   un
 16429  8481  8758   un
 16430  8481  8774   un
 16431  8481  8779    1
 16432  8481  8784    1
 16433  8481  8792    1
 16434  8481  8797    1
 16435  8482  8484   un
 16436  8482  8497   un
 16437  8482  8521   un
 16438  8482  8539   un
 16439  8482  8559   un
 16440  8482  8708    1
 16441  8482  8714    1
 16442  8482  8717    1
 16443  8482  8724    1
 16444  8482  8727    1
 16445  8482  8733    1
 16446  8482  8736    1
 16447  8482  8743    1
 16448  8483  8499   un
 16449  8483  8523   un
 16450  8483  8541   un
 16451  8483  8707    1
 16452  8483  8723    1
 16453  8483  8726    1
 16454  8483  8742    1
 16455  8483  8746   un
 16456  8483  8750   un
 16457  8483  8754   un
 16458  8483  8757   un
 16459  8483  8776   un
 16460  8483  8780    1
 16461  8483  8786    1
 16462  8483  8793    1
 16463  8483  8799    1
 16464  8484  8501   un
 16465  8484  8525   un
 16466  8484  8543   un
 16467  8484  8561   un
 16468  8484  8708    1
 16469  8484  8711    1
 16470  8484  8719    1
 16471  8484  8724    1
 16472  8484  8727    1
 16473  8484  8730    1
 16474  8484  8738    1
 16475  8484  8743    1
 16476  8485  8635   un
 16477  8486  8637   un
 16478  8487  8639   un
 16479  8488  8641   un
 16480  8489  8643   un
 16481  8490  8645   un
 16482  8491  8647   un
 16483  8492  8648   un
 16484  8492  8754   un
 16485  8493  8649   un
 16486  8494  8650   un
 16487  8494  8755   un
 16488  8495  8651   un
 16489  8496  8652   un
 16490  8496  8756   un
 16491  8497  8653   un
 16492  8498  8654   un
 16493  8498  8757   un
 16494  8499  8655   un
 16495  8500  8656   un
 16496  8500  8758   un
 16497  8501  8657   un
 16498  8502  8658   un
 16499  8502  8759   un
 16500  8503  8563   un
 16501  8504  8564   un
 16502  8505  8565   un
 16503  8506  8566   un
 16504  8507  8567   un
 16505  8508  8568   un
 16506  8509  8569   un
 16507  8510  8570   un
 16508  8511  8571   un
 16509  8512  8572   un
 16510  8513  8573   un
 16511  8514  8574   un
 16512  8515  8575   un
 16513  8516  8576   un
 16514  8517  8577   un
 16515  8518  8578   un
 16516  8519  8579   un
 16517  8520  8580   un
 16518  8521  8581   un
 16519  8522  8582   un
 16520  8523  8583   un
 16521  8524  8584   un
 16522  8525  8585   un
 16523  8526  8586   un
 16524  8527  8646   un
 16525  8528  8645   un
 16526  8529  8638   un
 16527  8530  8637   un
 16528  8531  8642   un
 16529  8532  8641   un
 16530  8533  8658   un
 16531  8534  8655   un
 16532  8534  8754   un
 16533  8535  8657   un
 16534  8536  8656   un
 16535  8536  8755   un
 16536  8537  8650   un
 16537  8538  8647   un
 16538  8538  8756   un
 16539  8539  8649   un
 16540  8540  8648   un
 16541  8540  8757   un
 16542  8541  8654   un
 16543  8542  8651   un
 16544  8542  8758   un
 16545  8543  8653   un
 16546  8544  8652   un
 16547  8544  8759   un
 16548  8545  8586   un
 16549  8546  8583   un
 16550  8546  8746   un
 16551  8547  8585   un
 16552  8548  8584   un
 16553  8549  8578   un
 16554  8549  8748   un
 16555  8550  8575   un
 16556  8550  8749   un
 16557  8551  8577   un
 16558  8552  8576   un
 16559  8553  8582   un
 16560  8553  8751   un
 16561  8554  8579   un
 16562  8554  8752   un
 16563  8555  8581   un
 16564  8556  8580   un
 16565  8557  8573   un
 16566  8558  8572   un
 16567  8559  8565   un
 16568  8560  8564   un
 16569  8561  8569   un
 16570  8562  8568   un
 16571  8563  8587   un
 16572  8564  8588   un
 16573  8565  8589   un
 16574  8566  8590   un
 16575  8567  8591   un
 16576  8568  8592   un
 16577  8569  8593   un
 16578  8570  8594   un
 16579  8571  8595   un
 16580  8572  8596   un
 16581  8573  8597   un
 16582  8574  8598   un
 16583  8575  8599   un
 16584  8576  8600   un
 16585  8577  8601   un
 16586  8578  8602   un
 16587  8579  8603   un
 16588  8580  8604   un
 16589  8581  8605   un
 16590  8582  8606   un
 16591  8583  8607   un
 16592  8584  8608   un
 16593  8585  8609   un
 16594  8586  8610   un
 16595  8587  8588   un
 16596  8587  8611    1
 16597  8588  8612    1
 16598  8589  8590   un
 16599  8589  8613    1
 16600  8590  8614    1
 16601  8591  8592   un
 16602  8591  8615    1
 16603  8592  8616    1
 16604  8593  8594   un
 16605  8593  8617    1
 16606  8594  8618    1
 16607  8595  8596   un
 16608  8595  8619    1
 16609  8596  8620    1
 16610  8597  8598   un
 16611  8597  8621    1
 16612  8598  8622    1
 16613  8599  8600   un
 16614  8599  8623    1
 16615  8600  8624    1
 16616  8601  8602   un
 16617  8601  8625    1
 16618  8602  8626    1
 16619  8603  8604   un
 16620  8603  8627    1
 16621  8604  8628    1
 16622  8605  8606   un
 16623  8605  8629    1
 16624  8606  8630    1
 16625  8607  8608   un
 16626  8607  8631    1
 16627  8608  8632    1
 16628  8609  8610   un
 16629  8609  8633    1
 16630  8610  8634    1
 16631  8635  8659   un
 16632  8636  8660   un
 16633  8637  8661   un
 16634  8638  8662   un
 16635  8639  8663   un
 16636  8640  8664   un
 16637  8641  8665   un
 16638  8642  8666   un
 16639  8643  8667   un
 16640  8644  8668   un
 16641  8645  8669   un
 16642  8646  8670   un
 16643  8647  8671   un
 16644  8648  8672   un
 16645  8649  8673   un
 16646  8650  8674   un
 16647  8651  8675   un
 16648  8652  8676   un
 16649  8653  8677   un
 16650  8654  8678   un
 16651  8655  8679   un
 16652  8656  8680   un
 16653  8657  8681   un
 16654  8658  8682   un
 16655  8659  8660   un
 16656  8659  8683    1
 16657  8660  8684    1
 16658  8661  8662   un
 16659  8661  8685    1
 16660  8662  8686    1
 16661  8663  8664   un
 16662  8663  8687    1
 16663  8664  8688    1
 16664  8665  8666   un
 16665  8665  8689    1
 16666  8666  8690    1
 16667  8667  8668   un
 16668  8667  8691    1
 16669  8668  8692    1
 16670  8669  8670   un
 16671  8669  8693    1
 16672  8670  8694    1
 16673  8671  8672   un
 16674  8671  8695    1
 16675  8672  8696    1
 16676  8673  8674   un
 16677  8673  8697    1
 16678  8674  8698    1
 16679  8675  8676   un
 16680  8675  8699    1
 16681  8676  8700    1
 16682  8677  8678   un
 16683  8677  8701    1
 16684  8678  8702    1
 16685  8679  8680   un
 16686  8679  8703    1
 16687  8680  8704    1
 16688  8681  8682   un
 16689  8681  8705    1
 16690  8682  8706    1
 16691  8707  8726    1
 16692  8707  8746    1
 16693  8707  8757    1
 16694  8708  8727    1
 16695  8709  8728    1
 16696  8709  8748    1
 16697  8710  8729    1
 16698  8710  8749    1
 16699  8710  8759    1
 16700  8711  8730    1
 16701  8712  8731    1
 16702  8712  8751    1
 16703  8713  8732    1
 16704  8713  8752    1
 16705  8713  8755    1
 16706  8714  8733    1
 16707  8715  8734    1
 16708  8716  8735    1
 16709  8716  8748    1
 16710  8717  8736    1
 16711  8718  8737    1
 16712  8718  8751    1
 16713  8719  8738    1
 16714  8720  8739    1
 16715  8721  8740    1
 16716  8722  8741    1
 16717  8722  8756    1
 16718  8722  8759    1
 16719  8723  8742    1
 16720  8723  8754    1
 16721  8723  8757    1
 16722  8724  8743    1
 16723  8725  8744    1
 16724  8725  8755    1
 16725  8725  8758    1
 16726  8726  8746    1
 16727  8726  8757    1
 16728  8728  8748    1
 16729  8729  8749    1
 16730  8729  8759    1
 16731  8731  8751    1
 16732  8732  8752    1
 16733  8732  8755    1
 16734  8735  8748    1
 16735  8737  8751    1
 16736  8741  8756    1
 16737  8741  8759    1
 16738  8742  8754    1
 16739  8742  8757    1
 16740  8744  8755    1
 16741  8744  8758    1
 16742  8745  8778    1
 16743  8745  8785    1
 16744  8745  8788    1
 16745  8745  8791    1
 16746  8745  8798    1
 16747  8745  8801    1
 16748  8746  8750   un
 16749  8746  8757   un
 16750  8746  8786    1
 16751  8746  8799    1
 16752  8746  8832   un
 16753  8746  9047    1
 16754  8746  9067    1
 16755  8746  9083   un
 16756  8746  9092   un
 16757  8746  9098   un
 16758  8746  9124    1
 16759  8746  9140    1
 16760  8747  8752   un
 16761  8747  8758   un
 16762  8747  8779    1
 16763  8747  8784    1
 16764  8747  8792    1
 16765  8747  8797    1
 16766  8747  9786   un
 16767  8747  9830    1
 16768  8747  9845    1
 16769  8748  8790    1
 16770  8748  8803    1
 16771  8749  8753   un
 16772  8749  8759   un
 16773  8749  8782    1
 16774  8749  8795    1
 16775  8749  9076   un
 16776  8749  9122    1
 16777  8749  9138    1
 16778  8750  8754   un
 16779  8750  8780    1
 16780  8750  8786    1
 16781  8750  8793    1
 16782  8750  8799    1
 16783  8750  9083   un
 16784  8750  9124    1
 16785  8750  9140    1
 16786  8750  9547   un
 16787  8750  9589   un
 16788  8750  9801   un
 16789  8750  9807   un
 16790  8750  9822    1
 16791  8750  9837    1
 16792  8751  8789    1
 16793  8751  8802    1
 16794  8751  9480    1
 16795  8751  9500    1
 16796  8751  9526   un
 16797  8751  9548   un
 16798  8751  9568   un
 16799  8752  8755   un
 16800  8752  8784    1
 16801  8752  8797    1
 16802  8752  9549   un
 16803  8752  9753    1
 16804  8752  9772    1
 16805  8752  9786   un
 16806  8752  9802   un
 16807  8752  9808   un
 16808  8752  9830    1
 16809  8752  9845    1
 16810  8753  8756   un
 16811  8753  8781    1
 16812  8753  8782    1
 16813  8753  8794    1
 16814  8753  8795    1
 16815  8753  8842   un
 16816  8753  8884   un
 16817  8753  9076   un
 16818  8753  9097   un
 16819  8753  9103   un
 16820  8753  9118    1
 16821  8753  9122    1
 16822  8753  9134    1
 16823  8753  9138    1
 16824  8754  8757   un
 16825  8754  8780    1
 16826  8754  8793    1
 16827  8754  9041    1
 16828  8754  9061    1
 16829  8754  9083   un
 16830  8754  9553   un
 16831  8754  9811   un
 16832  8754  9822    1
 16833  8754  9837    1
 16834  8755  8758   un
 16835  8755  9555   un
 16836  8755  9595   un
 16837  8755  9746    1
 16838  8755  9753    1
 16839  8755  9765    1
 16840  8755  9772    1
 16841  8755  9786   un
 16842  8756  8759   un
 16843  8756  8781    1
 16844  8756  8794    1
 16845  8756  8848   un
 16846  8756  9076   un
 16847  8756  9107   un
 16848  8756  9110    1
 16849  8756  9118    1
 16850  8756  9126    1
 16851  8756  9134    1
 16852  8757  8850   un
 16853  8757  8888   un
 16854  8757  9041    1
 16855  8757  9047    1
 16856  8757  9061    1
 16857  8757  9067    1
 16858  8757  9083   un
 16859  8758  8779    1
 16860  8758  8792    1
 16861  8758  9746    1
 16862  8758  9765    1
 16863  8758  9786   un
 16864  8759  9076   un
 16865  8759  9110    1
 16866  8759  9126    1
 16867  8760  9673   un
 16868  8761  9675   un
 16869  8762  8968   un
 16870  8763  8970   un
 16871  8766  9680   un
 16872  8767  9681   un
 16873  8768  8963   un
 16874  8769  8964   un
 16875  8772  8902   un
 16876  8773  8899   un
 16877  8776  9607   un
 16878  8777  9604   un
 16879  8778  8791    1
 16880  8779  8792    1
 16881  8780  8793    1
 16882  8781  8794    1
 16883  8782  8795    1
 16884  8783  8796    1
 16885  8784  8797    1
 16886  8785  8798    1
 16887  8786  8799    1
 16888  8787  8800    1
 16889  8788  8801    1
 16890  8789  8802    1
 16891  8790  8803    1
 16892  8804  8805   un
 16893  8804  8806   un
 16894  8804  8810   un
 16895  8804  8812   un
 16896  8804  8814   un
 16897  8804  8833   un
 16898  8804  8856   un
 16899  8804  8875   un
 16900  8804  9037    1
 16901  8804  9046    1
 16902  8804  9048    1
 16903  8804  9050    1
 16904  8804  9057    1
 16905  8804  9066    1
 16906  8804  9068    1
 16907  8804  9070    1
 16908  8805  8806   un
 16909  8805  8808   un
 16910  8805  8812   un
 16911  8805  8816   un
 16912  8805  8837   un
 16913  8805  8858   un
 16914  8805  8879   un
 16915  8805  9040    1
 16916  8805  9044    1
 16917  8805  9048    1
 16918  8805  9050    1
 16919  8805  9060    1
 16920  8805  9064    1
 16921  8805  9068    1
 16922  8805  9070    1
 16923  8806  8808   un
 16924  8806  8810   un
 16925  8806  8818   un
 16926  8806  8841   un
 16927  8806  8860   un
 16928  8806  8883   un
 16929  8806  9043    1
 16930  8806  9044    1
 16931  8806  9046    1
 16932  8806  9050    1
 16933  8806  9063    1
 16934  8806  9064    1
 16935  8806  9066    1
 16936  8806  9070    1
 16937  8807  8819   un
 16938  8807  8843   un
 16939  8807  8861   un
 16940  8807  9039    1
 16941  8807  9051    1
 16942  8807  9059    1
 16943  8807  9071    1
 16944  8807  9080   un
 16945  8807  9085   un
 16946  8807  9088   un
 16947  8807  9091   un
 16948  8807  9104   un
 16949  8807  9114    1
 16950  8807  9115    1
 16951  8807  9130    1
 16952  8807  9131    1
 16953  8808  8810   un
 16954  8808  8812   un
 16955  8808  8821   un
 16956  8808  8845   un
 16957  8808  8863   un
 16958  8808  8885   un
 16959  8808  9040    1
 16960  8808  9043    1
 16961  8808  9044    1
 16962  8808  9053    1
 16963  8808  9060    1
 16964  8808  9063    1
 16965  8808  9064    1
 16966  8808  9073    1
 16967  8809  8823   un
 16968  8809  8847   un
 16969  8809  8865   un
 16970  8809  9042    1
 16971  8809  9054    1
 16972  8809  9062    1
 16973  8809  9074    1
 16974  8809  9078   un
 16975  8809  9084   un
 16976  8809  9087   un
 16977  8809  9090   un
 16978  8809  9106   un
 16979  8809  9111    1
 16980  8809  9117    1
 16981  8809  9127    1
 16982  8809  9133    1
 16983  8810  8812   un
 16984  8810  8825   un
 16985  8810  8849   un
 16986  8810  8867   un
 16987  8810  8887   un
 16988  8810  9037    1
 16989  8810  9043    1
 16990  8810  9046    1
 16991  8810  9053    1
 16992  8810  9057    1
 16993  8810  9063    1
 16994  8810  9066    1
 16995  8810  9073    1
 16996  8811  8827   un
 16997  8811  8851   un
 16998  8811  8869   un
 16999  8811  9036    1
 17000  8811  9052    1
 17001  8811  9056    1
 17002  8811  9072    1
 17003  8811  9077   un
 17004  8811  9081   un
 17005  8811  9086   un
 17006  8811  9089   un
 17007  8811  9108   un
 17008  8811  9112    1
 17009  8811  9119    1
 17010  8811  9128    1
 17011  8811  9135    1
 17012  8812  8829   un
 17013  8812  8853   un
 17014  8812  8871   un
 17015  8812  8889   un
 17016  8812  9037    1
 17017  8812  9040    1
 17018  8812  9048    1
 17019  8812  9053    1
 17020  8812  9057    1
 17021  8812  9060    1
 17022  8812  9068    1
 17023  8812  9073    1
 17024  8813  8963   un
 17025  8814  8965   un
 17026  8815  8967   un
 17027  8816  8969   un
 17028  8817  8971   un
 17029  8818  8973   un
 17030  8819  8975   un
 17031  8820  8976   un
 17032  8820  9086   un
 17033  8821  8977   un
 17034  8822  8978   un
 17035  8822  9087   un
 17036  8823  8979   un
 17037  8824  8980   un
 17038  8824  9088   un
 17039  8825  8981   un
 17040  8826  8982   un
 17041  8826  9089   un
 17042  8827  8983   un
 17043  8828  8984   un
 17044  8828  9090   un
 17045  8829  8985   un
 17046  8830  8986   un
 17047  8830  9091   un
 17048  8831  8891   un
 17049  8832  8892   un
 17050  8833  8893   un
 17051  8834  8894   un
 17052  8835  8895   un
 17053  8836  8896   un
 17054  8837  8897   un
 17055  8838  8898   un
 17056  8839  8899   un
 17057  8840  8900   un
 17058  8841  8901   un
 17059  8842  8902   un
 17060  8843  8903   un
 17061  8844  8904   un
 17062  8845  8905   un
 17063  8846  8906   un
 17064  8847  8907   un
 17065  8848  8908   un
 17066  8849  8909   un
 17067  8850  8910   un
 17068  8851  8911   un
 17069  8852  8912   un
 17070  8853  8913   un
 17071  8854  8914   un
 17072  8855  8974   un
 17073  8856  8973   un
 17074  8857  8966   un
 17075  8858  8965   un
 17076  8859  8970   un
 17077  8860  8969   un
 17078  8861  8986   un
 17079  8862  8983   un
 17080  8862  9086   un
 17081  8863  8985   un
 17082  8864  8984   un
 17083  8864  9087   un
 17084  8865  8978   un
 17085  8866  8975   un
 17086  8866  9088   un
 17087  8867  8977   un
 17088  8868  8976   un
 17089  8868  9089   un
 17090  8869  8982   un
 17091  8870  8979   un
 17092  8870  9090   un
 17093  8871  8981   un
 17094  8872  8980   un
 17095  8872  9091   un
 17096  8873  8914   un
 17097  8873  9075   un
 17098  8874  8911   un
 17099  8874  9077   un
 17100  8875  8913   un
 17101  8876  8912   un
 17102  8877  8906   un
 17103  8877  9079   un
 17104  8878  8903   un
 17105  8878  9080   un
 17106  8879  8905   un
 17107  8880  8904   un
 17108  8881  8910   un
 17109  8881  9083   un
 17110  8882  8907   un
 17111  8882  9084   un
 17112  8883  8909   un
 17113  8884  8908   un
 17114  8885  8901   un
 17115  8886  8900   un
 17116  8887  8893   un
 17117  8888  8892   un
 17118  8889  8897   un
 17119  8890  8896   un
 17120  8891  8915   un
 17121  8892  8916   un
 17122  8893  8917   un
 17123  8894  8918   un
 17124  8895  8919   un
 17125  8896  8920   un
 17126  8897  8921   un
 17127  8898  8922   un
 17128  8899  8923   un
 17129  8900  8924   un
 17130  8901  8925   un
 17131  8902  8926   un
 17132  8903  8927   un
 17133  8904  8928   un
 17134  8905  8929   un
 17135  8906  8930   un
 17136  8907  8931   un
 17137  8908  8932   un
 17138  8909  8933   un
 17139  8910  8934   un
 17140  8911  8935   un
 17141  8912  8936   un
 17142  8913  8937   un
 17143  8914  8938   un
 17144  8915  8916   un
 17145  8915  8939    1
 17146  8916  8940    1
 17147  8917  8918   un
 17148  8917  8941    1
 17149  8918  8942    1
 17150  8919  8920   un
 17151  8919  8943    1
 17152  8920  8944    1
 17153  8921  8922   un
 17154  8921  8945    1
 17155  8922  8946    1
 17156  8923  8924   un
 17157  8923  8947    1
 17158  8924  8948    1
 17159  8925  8926   un
 17160  8925  8949    1
 17161  8926  8950    1
 17162  8927  8928   un
 17163  8927  8951    1
 17164  8928  8952    1
 17165  8929  8930   un
 17166  8929  8953    1
 17167  8930  8954    1
 17168  8931  8932   un
 17169  8931  8955    1
 17170  8932  8956    1
 17171  8933  8934   un
 17172  8933  8957    1
 17173  8934  8958    1
 17174  8935  8936   un
 17175  8935  8959    1
 17176  8936  8960    1
 17177  8937  8938   un
 17178  8937  8961    1
 17179  8938  8962    1
 17180  8963  8987   un
 17181  8964  8988   un
 17182  8965  8989   un
 17183  8966  8990   un
 17184  8967  8991   un
 17185  8968  8992   un
 17186  8969  8993   un
 17187  8970  8994   un
 17188  8971  8995   un
 17189  8972  8996   un
 17190  8973  8997   un
 17191  8974  8998   un
 17192  8975  8999   un
 17193  8976  9000   un
 17194  8977  9001   un
 17195  8978  9002   un
 17196  8979  9003   un
 17197  8980  9004   un
 17198  8981  9005   un
 17199  8982  9006   un
 17200  8983  9007   un
 17201  8984  9008   un
 17202  8985  9009   un
 17203  8986  9010   un
 17204  8987  8988   un
 17205  8987  9011    1
 17206  8988  9012    1
 17207  8989  8990   un
 17208  8989  9013    1
 17209  8990  9014    1
 17210  8991  8992   un
 17211  8991  9015    1
 17212  8992  9016    1
 17213  8993  8994   un
 17214  8993  9017    1
 17215  8994  9018    1
 17216  8995  8996   un
 17217  8995  9019    1
 17218  8996  9020    1
 17219  8997  8998   un
 17220  8997  9021    1
 17221  8998  9022    1
 17222  8999  9000   un
 17223  8999  9023    1
 17224  9000  9024    1
 17225  9001  9002   un
 17226  9001  9025    1
 17227  9002  9026    1
 17228  9003  9004   un
 17229  9003  9027    1
 17230  9004  9028    1
 17231  9005  9006   un
 17232  9005  9029    1
 17233  9006  9030    1
 17234  9007  9008   un
 17235  9007  9031    1
 17236  9008  9032    1
 17237  9009  9010   un
 17238  9009  9033    1
 17239  9010  9034    1
 17240  9035  9055    1
 17241  9035  9075    1
 17242  9036  9056    1
 17243  9036  9077    1
 17244  9036  9089    1
 17245  9037  9057    1
 17246  9038  9058    1
 17247  9038  9079    1
 17248  9039  9059    1
 17249  9039  9080    1
 17250  9039  9091    1
 17251  9040  9060    1
 17252  9041  9061    1
 17253  9041  9083    1
 17254  9042  9062    1
 17255  9042  9084    1
 17256  9042  9087    1
 17257  9043  9063    1
 17258  9044  9064    1
 17259  9045  9065    1
 17260  9045  9079    1
 17261  9046  9066    1
 17262  9047  9067    1
 17263  9047  9083    1
 17264  9048  9068    1
 17265  9049  9069    1
 17266  9049  9075    1
 17267  9050  9070    1
 17268  9051  9071    1
 17269  9051  9088    1
 17270  9051  9091    1
 17271  9052  9072    1
 17272  9052  9086    1
 17273  9052  9089    1
 17274  9053  9073    1
 17275  9054  9074    1
 17276  9054  9087    1
 17277  9054  9090    1
 17278  9055  9075    1
 17279  9056  9077    1
 17280  9056  9089    1
 17281  9058  9079    1
 17282  9059  9080    1
 17283  9059  9091    1
 17284  9061  9083    1
 17285  9062  9084    1
 17286  9062  9087    1
 17287  9065  9079    1
 17288  9067  9083    1
 17289  9069  9075    1
 17290  9071  9088    1
 17291  9071  9091    1
 17292  9072  9086    1
 17293  9072  9089    1
 17294  9074  9087    1
 17295  9074  9090    1
 17296  9075  9121    1
 17297  9075  9137    1
 17298  9076  9110    1
 17299  9076  9118    1
 17300  9076  9122    1
 17301  9076  9126    1
 17302  9076  9134    1
 17303  9076  9138    1
 17304  9077  9081   un
 17305  9077  9089   un
 17306  9077  9119    1
 17307  9077  9135    1
 17308  9077 10125   un
 17309  9077 10167    1
 17310  9077 10185    1
 17311  9078  9084   un
 17312  9078  9090   un
 17313  9078  9111    1
 17314  9078  9117    1
 17315  9078  9127    1
 17316  9078  9133    1
 17317  9078 10122   un
 17318  9078 10170    1
 17319  9078 10188    1
 17320  9079  9125    1
 17321  9079  9141    1
 17322  9080  9085   un
 17323  9080  9091   un
 17324  9080  9115    1
 17325  9080  9131    1
 17326  9081  9086   un
 17327  9081  9112    1
 17328  9081  9119    1
 17329  9081  9128    1
 17330  9081  9135    1
 17331  9081  9880   un
 17332  9081  9922   un
 17333  9081 10125   un
 17334  9081 10138   un
 17335  9081 10144   un
 17336  9081 10160    1
 17337  9081 10167    1
 17338  9081 10178    1
 17339  9081 10185    1
 17340  9082  9113    1
 17341  9082  9116    1
 17342  9082  9123    1
 17343  9082  9129    1
 17344  9082  9132    1
 17345  9082  9139    1
 17346  9083  9124    1
 17347  9083  9140    1
 17348  9083  9822    1
 17349  9083  9837    1
 17350  9083  9859   un
 17351  9083  9881   un
 17352  9083  9901   un
 17353  9084  9087   un
 17354  9084  9117    1
 17355  9084  9133    1
 17356  9084  9882   un
 17357  9084 10087    1
 17358  9084 10107    1
 17359  9084 10122   un
 17360  9084 10139   un
 17361  9084 10145   un
 17362  9084 10170    1
 17363  9084 10188    1
 17364  9085  9088   un
 17365  9085  9114    1
 17366  9085  9115    1
 17367  9085  9130    1
 17368  9085  9131    1
 17369  9086  9089   un
 17370  9086  9112    1
 17371  9086  9128    1
 17372  9086  9886   un
 17373  9086 10125   un
 17374  9086 10148   un
 17375  9086 10157    1
 17376  9086 10160    1
 17377  9086 10175    1
 17378  9086 10178    1
 17379  9087  9090   un
 17380  9087  9888   un
 17381  9087  9928   un
 17382  9087 10080    1
 17383  9087 10087    1
 17384  9087 10100    1
 17385  9087 10107    1
 17386  9087 10122   un
 17387  9088  9091   un
 17388  9088  9114    1
 17389  9088  9130    1
 17390  9089 10125   un
 17391  9089 10157    1
 17392  9089 10175    1
 17393  9090  9111    1
 17394  9090  9127    1
 17395  9090 10080    1
 17396  9090 10100    1
 17397  9090 10122   un
 17398  9092 10006   un
 17399  9093 10008   un
 17400  9098 10013   un
 17401  9099 10014   un
 17402  9108  9940   un
 17403  9109  9937   un
 17404  9110  9126    1
 17405  9111  9127    1
 17406  9112  9128    1
 17407  9113  9129    1
 17408  9114  9130    1
 17409  9115  9131    1
 17410  9116  9132    1
 17411  9117  9133    1
 17412  9118  9134    1
 17413  9119  9135    1
 17414  9120  9136    1
 17415  9121  9137    1
 17416  9122  9138    1
 17417  9123  9139    1
 17418  9124  9140    1
 17419  9125  9141    1
 17420  9142  9152   un
 17421  9142  9176   un
 17422  9142  9397    1
 17423  9142  9419    1
 17424  9142  9434   un
 17425  9142  9436   un
 17426  9142  9445   un
 17427  9142  9449   un
 17428  9142  9457   un
 17429  9142  9466   un
 17430  9142  9474    1
 17431  9142  9483    1
 17432  9142  9488    1
 17433  9142  9494    1
 17434  9142  9503    1
 17435  9142  9508    1
 17436  9143  9144   un
 17437  9143  9145   un
 17438  9143  9151   un
 17439  9143  9154   un
 17440  9143  9156   un
 17441  9143  9177   un
 17442  9143  9200   un
 17443  9143  9221   un
 17444  9143  9384    1
 17445  9143  9396    1
 17446  9143  9398    1
 17447  9143  9400    1
 17448  9143  9406    1
 17449  9143  9418    1
 17450  9143  9420    1
 17451  9143  9422    1
 17452  9144  9145   un
 17453  9144  9148   un
 17454  9144  9154   un
 17455  9144  9159   un
 17456  9144  9181   un
 17457  9144  9203   un
 17458  9144  9225   un
 17459  9144  9387    1
 17460  9144  9394    1
 17461  9144  9398    1
 17462  9144  9400    1
 17463  9144  9409    1
 17464  9144  9416    1
 17465  9144  9420    1
 17466  9144  9422    1
 17467  9145  9148   un
 17468  9145  9151   un
 17469  9145  9162   un
 17470  9145  9185   un
 17471  9145  9206   un
 17472  9145  9229   un
 17473  9145  9390    1
 17474  9145  9394    1
 17475  9145  9396    1
 17476  9145  9400    1
 17477  9145  9412    1
 17478  9145  9416    1
 17479  9145  9418    1
 17480  9145  9422    1
 17481  9146  9150   un
 17482  9146  9186   un
 17483  9146  9230   un
 17484  9146  9391    1
 17485  9146  9392    1
 17486  9146  9413    1
 17487  9146  9414    1
 17488  9146  9427   un
 17489  9146  9432   un
 17490  9146  9439   un
 17491  9146  9454   un
 17492  9146  9462   un
 17493  9146  9482    1
 17494  9146  9487    1
 17495  9146  9502    1
 17496  9146  9507    1
 17497  9147  9163   un
 17498  9147  9187   un
 17499  9147  9207   un
 17500  9147  9386    1
 17501  9147  9401    1
 17502  9147  9408    1
 17503  9147  9423    1
 17504  9147  9433   un
 17505  9147  9438   un
 17506  9147  9443   un
 17507  9147  9448   un
 17508  9147  9467   un
 17509  9147  9478    1
 17510  9147  9479    1
 17511  9147  9498    1
 17512  9147  9499    1
 17513  9148  9151   un
 17514  9148  9154   un
 17515  9148  9165   un
 17516  9148  9189   un
 17517  9148  9209   un
 17518  9148  9233   un
 17519  9148  9387    1
 17520  9148  9390    1
 17521  9148  9394    1
 17522  9148  9403    1
 17523  9148  9409    1
 17524  9148  9412    1
 17525  9148  9416    1
 17526  9148  9425    1
 17527  9149  9167   un
 17528  9149  9191   un
 17529  9149  9211   un
 17530  9149  9389    1
 17531  9149  9404    1
 17532  9149  9411    1
 17533  9149  9426    1
 17534  9149  9429   un
 17535  9149  9437   un
 17536  9149  9442   un
 17537  9149  9446   un
 17538  9149  9469   un
 17539  9149  9475    1
 17540  9149  9481    1
 17541  9149  9495    1
 17542  9149  9501    1
 17543  9150  9192   un
 17544  9150  9391    1
 17545  9150  9413    1
 17546  9150  9427   un
 17547  9150  9439   un
 17548  9150  9447   un
 17549  9150  9455   un
 17550  9150  9463   un
 17551  9150  9470   un
 17552  9150  9473    1
 17553  9150  9482    1
 17554  9150  9491    1
 17555  9150  9493    1
 17556  9150  9502    1
 17557  9150  9511    1
 17558  9151  9154   un
 17559  9151  9169   un
 17560  9151  9193   un
 17561  9151  9213   un
 17562  9151  9235   un
 17563  9151  9384    1
 17564  9151  9390    1
 17565  9151  9396    1
 17566  9151  9403    1
 17567  9151  9406    1
 17568  9151  9412    1
 17569  9151  9418    1
 17570  9151  9425    1
 17571  9152  9194   un
 17572  9152  9236   un
 17573  9152  9388    1
 17574  9152  9397    1
 17575  9152  9410    1
 17576  9152  9419    1
 17577  9152  9436   un
 17578  9152  9440   un
 17579  9152  9445   un
 17580  9152  9456   un
 17581  9152  9464   un
 17582  9152  9474    1
 17583  9152  9492    1
 17584  9152  9494    1
 17585  9152  9512    1
 17586  9153  9171   un
 17587  9153  9195   un
 17588  9153  9215   un
 17589  9153  9383    1
 17590  9153  9402    1
 17591  9153  9405    1
 17592  9153  9424    1
 17593  9153  9428   un
 17594  9153  9435   un
 17595  9153  9441   un
 17596  9153  9444   un
 17597  9153  9471   un
 17598  9153  9477    1
 17599  9153  9484    1
 17600  9153  9497    1
 17601  9153  9504    1
 17602  9154  9173   un
 17603  9154  9197   un
 17604  9154  9217   un
 17605  9154  9237   un
 17606  9154  9384    1
 17607  9154  9387    1
 17608  9154  9398    1
 17609  9154  9403    1
 17610  9154  9406    1
 17611  9154  9409    1
 17612  9154  9420    1
 17613  9154  9425    1
 17614  9155  9311   un
 17615  9156  9313   un
 17616  9157  9315   un
 17617  9158  9316   un
 17618  9159  9317   un
 17619  9160  9318   un
 17620  9161  9319   un
 17621  9162  9321   un
 17622  9163  9323   un
 17623  9164  9324   un
 17624  9164  9441   un
 17625  9165  9325   un
 17626  9166  9326   un
 17627  9166  9442   un
 17628  9167  9327   un
 17629  9168  9328   un
 17630  9168  9443   un
 17631  9169  9329   un
 17632  9170  9330   un
 17633  9170  9444   un
 17634  9171  9331   un
 17635  9172  9332   un
 17636  9172  9446   un
 17637  9173  9333   un
 17638  9174  9334   un
 17639  9174  9448   un
 17640  9175  9239   un
 17641  9176  9240   un
 17642  9177  9241   un
 17643  9178  9242   un
 17644  9179  9243   un
 17645  9180  9244   un
 17646  9181  9245   un
 17647  9182  9246   un
 17648  9183  9247   un
 17649  9184  9248   un
 17650  9185  9249   un
 17651  9186  9250   un
 17652  9187  9251   un
 17653  9188  9252   un
 17654  9189  9253   un
 17655  9190  9254   un
 17656  9191  9255   un
 17657  9192  9256   un
 17658  9193  9257   un
 17659  9194  9258   un
 17660  9195  9259   un
 17661  9196  9260   un
 17662  9197  9261   un
 17663  9198  9262   un
 17664  9199  9322   un
 17665  9200  9321   un
 17666  9201  9314   un
 17667  9202  9311   un
 17668  9203  9313   un
 17669  9204  9312   un
 17670  9205  9318   un
 17671  9206  9317   un
 17672  9207  9334   un
 17673  9208  9331   un
 17674  9208  9441   un
 17675  9209  9333   un
 17676  9210  9332   un
 17677  9210  9442   un
 17678  9211  9326   un
 17679  9212  9323   un
 17680  9212  9443   un
 17681  9213  9325   un
 17682  9214  9324   un
 17683  9214  9444   un
 17684  9215  9330   un
 17685  9216  9327   un
 17686  9216  9446   un
 17687  9217  9329   un
 17688  9218  9328   un
 17689  9218  9448   un
 17690  9219  9262   un
 17691  9220  9259   un
 17692  9220  9428   un
 17693  9221  9261   un
 17694  9222  9260   un
 17695  9223  9254   un
 17696  9223  9431   un
 17697  9224  9251   un
 17698  9224  9433   un
 17699  9225  9253   un
 17700  9226  9252   un
 17701  9227  9258   un
 17702  9227  9436   un
 17703  9228  9255   un
 17704  9228  9437   un
 17705  9229  9257   un
 17706  9230  9256   un
 17707  9231  9250   un
 17708  9231  9439   un
 17709  9232  9247   un
 17710  9233  9249   un
 17711  9234  9248   un
 17712  9235  9241   un
 17713  9236  9240   un
 17714  9237  9245   un
 17715  9238  9244   un
 17716  9239  9263   un
 17717  9240  9264   un
 17718  9241  9265   un
 17719  9242  9266   un
 17720  9243  9267   un
 17721  9244  9268   un
 17722  9245  9269   un
 17723  9246  9270   un
 17724  9247  9271   un
 17725  9248  9272   un
 17726  9249  9273   un
 17727  9250  9274   un
 17728  9251  9275   un
 17729  9252  9276   un
 17730  9253  9277   un
 17731  9254  9278   un
 17732  9255  9279   un
 17733  9256  9280   un
 17734  9257  9281   un
 17735  9258  9282   un
 17736  9259  9283   un
 17737  9260  9284   un
 17738  9261  9285   un
 17739  9262  9286   un
 17740  9263  9264   un
 17741  9263  9287    1
 17742  9264  9288    1
 17743  9265  9266   un
 17744  9265  9289    1
 17745  9266  9290    1
 17746  9267  9268   un
 17747  9267  9291    1
 17748  9268  9292    1
 17749  9269  9270   un
 17750  9269  9293    1
 17751  9270  9294    1
 17752  9271  9272   un
 17753  9271  9295    1
 17754  9272  9296    1
 17755  9273  9274   un
 17756  9273  9297    1
 17757  9274  9298    1
 17758  9275  9276   un
 17759  9275  9299    1
 17760  9276  9300    1
 17761  9277  9278   un
 17762  9277  9301    1
 17763  9278  9302    1
 17764  9279  9280   un
 17765  9279  9303    1
 17766  9280  9304    1
 17767  9281  9282   un
 17768  9281  9305    1
 17769  9282  9306    1
 17770  9283  9284   un
 17771  9283  9307    1
 17772  9284  9308    1
 17773  9285  9286   un
 17774  9285  9309    1
 17775  9286  9310    1
 17776  9311  9335   un
 17777  9312  9336   un
 17778  9313  9337   un
 17779  9314  9338   un
 17780  9315  9339   un
 17781  9316  9340   un
 17782  9317  9341   un
 17783  9318  9342   un
 17784  9319  9343   un
 17785  9320  9344   un
 17786  9321  9345   un
 17787  9322  9346   un
 17788  9323  9347   un
 17789  9324  9348   un
 17790  9325  9349   un
 17791  9326  9350   un
 17792  9327  9351   un
 17793  9328  9352   un
 17794  9329  9353   un
 17795  9330  9354   un
 17796  9331  9355   un
 17797  9332  9356   un
 17798  9333  9357   un
 17799  9334  9358   un
 17800  9335  9336   un
 17801  9335  9359    1
 17802  9336  9360    1
 17803  9337  9338   un
 17804  9337  9361    1
 17805  9338  9362    1
 17806  9339  9340   un
 17807  9339  9363    1
 17808  9340  9364    1
 17809  9341  9342   un
 17810  9341  9365    1
 17811  9342  9366    1
 17812  9343  9344   un
 17813  9343  9367    1
 17814  9344  9368    1
 17815  9345  9346   un
 17816  9345  9369    1
 17817  9346  9370    1
 17818  9347  9348   un
 17819  9347  9371    1
 17820  9348  9372    1
 17821  9349  9350   un
 17822  9349  9373    1
 17823  9350  9374    1
 17824  9351  9352   un
 17825  9351  9375    1
 17826  9352  9376    1
 17827  9353  9354   un
 17828  9353  9377    1
 17829  9354  9378    1
 17830  9355  9356   un
 17831  9355  9379    1
 17832  9356  9380    1
 17833  9357  9358   un
 17834  9357  9381    1
 17835  9358  9382    1
 17836  9383  9405    1
 17837  9383  9428    1
 17838  9383  9444    1
 17839  9384  9406    1
 17840  9385  9407    1
 17841  9385  9431    1
 17842  9386  9408    1
 17843  9386  9433    1
 17844  9386  9448    1
 17845  9387  9409    1
 17846  9388  9410    1
 17847  9388  9436    1
 17848  9388  9440    1
 17849  9389  9411    1
 17850  9389  9437    1
 17851  9389  9442    1
 17852  9390  9412    1
 17853  9391  9413    1
 17854  9391  9439    1
 17855  9392  9414    1
 17856  9392  9432    1
 17857  9392  9439    1
 17858  9393  9415    1
 17859  9394  9416    1
 17860  9395  9417    1
 17861  9395  9431    1
 17862  9396  9418    1
 17863  9397  9419    1
 17864  9397  9436    1
 17865  9398  9420    1
 17866  9399  9421    1
 17867  9400  9422    1
 17868  9401  9423    1
 17869  9401  9443    1
 17870  9401  9448    1
 17871  9402  9424    1
 17872  9402  9441    1
 17873  9402  9444    1
 17874  9403  9425    1
 17875  9404  9426    1
 17876  9404  9442    1
 17877  9404  9446    1
 17878  9405  9428    1
 17879  9405  9444    1
 17880  9407  9431    1
 17881  9408  9433    1
 17882  9408  9448    1
 17883  9410  9436    1
 17884  9410  9440    1
 17885  9411  9437    1
 17886  9411  9442    1
 17887  9413  9439    1
 17888  9414  9432    1
 17889  9414  9439    1
 17890  9417  9431    1
 17891  9419  9436    1
 17892  9423  9443    1
 17893  9423  9448    1
 17894  9424  9441    1
 17895  9424  9444    1
 17896  9426  9442    1
 17897  9426  9446    1
 17898  9427  9432   un
 17899  9427  9447   un
 17900  9427  9473    1
 17901  9427  9482    1
 17902  9427  9487    1
 17903  9427  9493    1
 17904  9427  9502    1
 17905  9427  9507    1
 17906  9428  9435   un
 17907  9428  9444   un
 17908  9428  9484    1
 17909  9428  9504    1
 17910  9428  9541   un
 17911  9428  9755    1
 17912  9428  9774    1
 17913  9428  9789   un
 17914  9428  9798   un
 17915  9428  9804   un
 17916  9428  9828    1
 17917  9428  9843    1
 17918  9429  9437   un
 17919  9429  9446   un
 17920  9429  9475    1
 17921  9429  9481    1
 17922  9429  9495    1
 17923  9429  9501    1
 17924  9430  9476    1
 17925  9430  9485    1
 17926  9430  9489    1
 17927  9430  9496    1
 17928  9430  9505    1
 17929  9430  9509    1
 17930  9431  9490    1
 17931  9431  9510    1
 17932  9432  9439   un
 17933  9432  9447   un
 17934  9432  9487    1
 17935  9432  9507    1
 17936  9433  9438   un
 17937  9433  9448   un
 17938  9433  9479    1
 17939  9433  9499    1
 17940  9433  9782   un
 17941  9433  9827    1
 17942  9433  9842    1
 17943  9434  9436   un
 17944  9434  9440   un
 17945  9434  9445   un
 17946  9434  9483    1
 17947  9434  9488    1
 17948  9434  9503    1
 17949  9434  9508    1
 17950  9435  9441   un
 17951  9435  9477    1
 17952  9435  9484    1
 17953  9435  9497    1
 17954  9435  9504    1
 17955  9435  9789   un
 17956  9435  9828    1
 17957  9435  9843    1
 17958  9436  9440   un
 17959  9436  9488    1
 17960  9436  9508    1
 17961  9437  9442   un
 17962  9437  9481    1
 17963  9437  9501    1
 17964  9438  9443   un
 17965  9438  9478    1
 17966  9438  9479    1
 17967  9438  9498    1
 17968  9438  9499    1
 17969  9438  9551   un
 17970  9438  9593   un
 17971  9438  9782   un
 17972  9438  9803   un
 17973  9438  9809   un
 17974  9438  9824    1
 17975  9438  9827    1
 17976  9438  9839    1
 17977  9438  9842    1
 17978  9439  9447   un
 17979  9439  9491    1
 17980  9439  9511    1
 17981  9440  9445   un
 17982  9440  9492    1
 17983  9440  9512    1
 17984  9441  9444   un
 17985  9441  9477    1
 17986  9441  9497    1
 17987  9441  9749    1
 17988  9441  9768    1
 17989  9441  9789   un
 17990  9442  9446   un
 17991  9443  9448   un
 17992  9443  9478    1
 17993  9443  9498    1
 17994  9443  9557   un
 17995  9443  9782   un
 17996  9443  9813   un
 17997  9443  9816    1
 17998  9443  9824    1
 17999  9443  9831    1
 18000  9443  9839    1
 18001  9444  9559   un
 18002  9444  9597   un
 18003  9444  9749    1
 18004  9444  9755    1
 18005  9444  9768    1
 18006  9444  9774    1
 18007  9444  9789   un
 18008  9445  9474    1
 18009  9445  9483    1
 18010  9445  9492    1
 18011  9445  9494    1
 18012  9445  9503    1
 18013  9445  9512    1
 18014  9446  9475    1
 18015  9446  9495    1
 18016  9447  9473    1
 18017  9447  9491    1
 18018  9447  9493    1
 18019  9447  9511    1
 18020  9448  9782   un
 18021  9448  9816    1
 18022  9448  9831    1
 18023  9451  9677   un
 18024  9452  9679   un
 18025  9459  9672   un
 18026  9460  9673   un
 18027  9467  9611   un
 18028  9468  9608   un
 18029  9473  9493    1
 18030  9474  9494    1
 18031  9475  9495    1
 18032  9476  9496    1
 18033  9477  9497    1
 18034  9478  9498    1
 18035  9479  9499    1
 18036  9480  9500    1
 18037  9481  9501    1
 18038  9482  9502    1
 18039  9483  9503    1
 18040  9484  9504    1
 18041  9485  9505    1
 18042  9486  9506    1
 18043  9487  9507    1
 18044  9488  9508    1
 18045  9489  9509    1
 18046  9490  9510    1
 18047  9491  9511    1
 18048  9492  9512    1
 18049  9513  9514   un
 18050  9513  9515   un
 18051  9513  9519   un
 18052  9513  9521   un
 18053  9513  9523   un
 18054  9513  9542   un
 18055  9513  9565   un
 18056  9513  9584   un
 18057  9513  9745    1
 18058  9513  9754    1
 18059  9513  9756    1
 18060  9513  9758    1
 18061  9513  9764    1
 18062  9513  9773    1
 18063  9513  9775    1
 18064  9513  9777    1
 18065  9514  9515   un
 18066  9514  9517   un
 18067  9514  9521   un
 18068  9514  9525   un
 18069  9514  9546   un
 18070  9514  9567   un
 18071  9514  9588   un
 18072  9514  9748    1
 18073  9514  9752    1
 18074  9514  9756    1
 18075  9514  9758    1
 18076  9514  9767    1
 18077  9514  9771    1
 18078  9514  9775    1
 18079  9514  9777    1
 18080  9515  9517   un
 18081  9515  9519   un
 18082  9515  9527   un
 18083  9515  9550   un
 18084  9515  9569   un
 18085  9515  9592   un
 18086  9515  9751    1
 18087  9515  9752    1
 18088  9515  9754    1
 18089  9515  9758    1
 18090  9515  9770    1
 18091  9515  9771    1
 18092  9515  9773    1
 18093  9515  9777    1
 18094  9516  9528   un
 18095  9516  9552   un
 18096  9516  9570   un
 18097  9516  9747    1
 18098  9516  9759    1
 18099  9516  9766    1
 18100  9516  9778    1
 18101  9516  9787   un
 18102  9516  9791   un
 18103  9516  9794   un
 18104  9516  9797   un
 18105  9516  9810   un
 18106  9516  9820    1
 18107  9516  9821    1
 18108  9516  9835    1
 18109  9516  9836    1
 18110  9517  9519   un
 18111  9517  9521   un
 18112  9517  9530   un
 18113  9517  9554   un
 18114  9517  9572   un
 18115  9517  9594   un
 18116  9517  9748    1
 18117  9517  9751    1
 18118  9517  9752    1
 18119  9517  9761    1
 18120  9517  9767    1
 18121  9517  9770    1
 18122  9517  9771    1
 18123  9517  9780    1
 18124  9518  9532   un
 18125  9518  9556   un
 18126  9518  9574   un
 18127  9518  9750    1
 18128  9518  9762    1
 18129  9518  9769    1
 18130  9518  9781    1
 18131  9518  9784   un
 18132  9518  9790   un
 18133  9518  9793   un
 18134  9518  9796   un
 18135  9518  9812   un
 18136  9518  9817    1
 18137  9518  9823    1
 18138  9518  9832    1
 18139  9518  9838    1
 18140  9519  9521   un
 18141  9519  9534   un
 18142  9519  9558   un
 18143  9519  9576   un
 18144  9519  9596   un
 18145  9519  9745    1
 18146  9519  9751    1
 18147  9519  9754    1
 18148  9519  9761    1
 18149  9519  9764    1
 18150  9519  9770    1
 18151  9519  9773    1
 18152  9519  9780    1
 18153  9520  9536   un
 18154  9520  9560   un
 18155  9520  9578   un
 18156  9520  9744    1
 18157  9520  9760    1
 18158  9520  9763    1
 18159  9520  9779    1
 18160  9520  9783   un
 18161  9520  9788   un
 18162  9520  9792   un
 18163  9520  9795   un
 18164  9520  9814   un
 18165  9520  9819    1
 18166  9520  9825    1
 18167  9520  9834    1
 18168  9520  9840    1
 18169  9521  9538   un
 18170  9521  9562   un
 18171  9521  9580   un
 18172  9521  9598   un
 18173  9521  9745    1
 18174  9521  9748    1
 18175  9521  9756    1
 18176  9521  9761    1
 18177  9521  9764    1
 18178  9521  9767    1
 18179  9521  9775    1
 18180  9521  9780    1
 18181  9522  9672   un
 18182  9523  9674   un
 18183  9524  9676   un
 18184  9525  9678   un
 18185  9526  9680   un
 18186  9527  9682   un
 18187  9528  9684   un
 18188  9529  9685   un
 18189  9529  9792   un
 18190  9530  9686   un
 18191  9531  9687   un
 18192  9531  9793   un
 18193  9532  9688   un
 18194  9533  9689   un
 18195  9533  9794   un
 18196  9534  9690   un
 18197  9535  9691   un
 18198  9535  9795   un
 18199  9536  9692   un
 18200  9537  9693   un
 18201  9537  9796   un
 18202  9538  9694   un
 18203  9539  9695   un
 18204  9539  9797   un
 18205  9540  9600   un
 18206  9541  9601   un
 18207  9542  9602   un
 18208  9543  9603   un
 18209  9544  9604   un
 18210  9545  9605   un
 18211  9546  9606   un
 18212  9547  9607   un
 18213  9548  9608   un
 18214  9549  9609   un
 18215  9550  9610   un
 18216  9551  9611   un
 18217  9552  9612   un
 18218  9553  9613   un
 18219  9554  9614   un
 18220  9555  9615   un
 18221  9556  9616   un
 18222  9557  9617   un
 18223  9558  9618   un
 18224  9559  9619   un
 18225  9560  9620   un
 18226  9561  9621   un
 18227  9562  9622   un
 18228  9563  9623   un
 18229  9564  9683   un
 18230  9565  9682   un
 18231  9566  9675   un
 18232  9567  9674   un
 18233  9568  9679   un
 18234  9569  9678   un
 18235  9570  9695   un
 18236  9571  9692   un
 18237  9571  9792   un
 18238  9572  9694   un
 18239  9573  9693   un
 18240  9573  9793   un
 18241  9574  9687   un
 18242  9575  9684   un
 18243  9575  9794   un
 18244  9576  9686   un
 18245  9577  9685   un
 18246  9577  9795   un
 18247  9578  9691   un
 18248  9579  9688   un
 18249  9579  9796   un
 18250  9580  9690   un
 18251  9581  9689   un
 18252  9581  9797   un
 18253  9582  9623   un
 18254  9583  9620   un
 18255  9583  9783   un
 18256  9584  9622   un
 18257  9585  9621   un
 18258  9586  9615   un
 18259  9586  9786   un
 18260  9587  9612   un
 18261  9587  9787   un
 18262  9588  9614   un
 18263  9589  9613   un
 18264  9590  9619   un
 18265  9590  9789   un
 18266  9591  9616   un
 18267  9591  9790   un
 18268  9592  9618   un
 18269  9593  9617   un
 18270  9594  9610   un
 18271  9595  9609   un
 18272  9596  9602   un
 18273  9597  9601   un
 18274  9598  9606   un
 18275  9599  9605   un
 18276  9600  9624   un
 18277  9601  9625   un
 18278  9602  9626   un
 18279  9603  9627   un
 18280  9604  9628   un
 18281  9605  9629   un
 18282  9606  9630   un
 18283  9607  9631   un
 18284  9608  9632   un
 18285  9609  9633   un
 18286  9610  9634   un
 18287  9611  9635   un
 18288  9612  9636   un
 18289  9613  9637   un
 18290  9614  9638   un
 18291  9615  9639   un
 18292  9616  9640   un
 18293  9617  9641   un
 18294  9618  9642   un
 18295  9619  9643   un
 18296  9620  9644   un
 18297  9621  9645   un
 18298  9622  9646   un
 18299  9623  9647   un
 18300  9624  9625   un
 18301  9624  9648    1
 18302  9625  9649    1
 18303  9626  9627   un
 18304  9626  9650    1
 18305  9627  9651    1
 18306  9628  9629   un
 18307  9628  9652    1
 18308  9629  9653    1
 18309  9630  9631   un
 18310  9630  9654    1
 18311  9631  9655    1
 18312  9632  9633   un
 18313  9632  9656    1
 18314  9633  9657    1
 18315  9634  9635   un
 18316  9634  9658    1
 18317  9635  9659    1
 18318  9636  9637   un
 18319  9636  9660    1
 18320  9637  9661    1
 18321  9638  9639   un
 18322  9638  9662    1
 18323  9639  9663    1
 18324  9640  9641   un
 18325  9640  9664    1
 18326  9641  9665    1
 18327  9642  9643   un
 18328  9642  9666    1
 18329  9643  9667    1
 18330  9644  9645   un
 18331  9644  9668    1
 18332  9645  9669    1
 18333  9646  9647   un
 18334  9646  9670    1
 18335  9647  9671    1
 18336  9672  9696   un
 18337  9673  9697   un
 18338  9674  9698   un
 18339  9675  9699   un
 18340  9676  9700   un
 18341  9677  9701   un
 18342  9678  9702   un
 18343  9679  9703   un
 18344  9680  9704   un
 18345  9681  9705   un
 18346  9682  9706   un
 18347  9683  9707   un
 18348  9684  9708   un
 18349  9685  9709   un
 18350  9686  9710   un
 18351  9687  9711   un
 18352  9688  9712   un
 18353  9689  9713   un
 18354  9690  9714   un
 18355  9691  9715   un
 18356  9692  9716   un
 18357  9693  9717   un
 18358  9694  9718   un
 18359  9695  9719   un
 18360  9696  9697   un
 18361  9696  9720    1
 18362  9697  9721    1
 18363  9698  9699   un
 18364  9698  9722    1
 18365  9699  9723    1
 18366  9700  9701   un
 18367  9700  9724    1
 18368  9701  9725    1
 18369  9702  9703   un
 18370  9702  9726    1
 18371  9703  9727    1
 18372  9704  9705   un
 18373  9704  9728    1
 18374  9705  9729    1
 18375  9706  9707   un
 18376  9706  9730    1
 18377  9707  9731    1
 18378  9708  9709   un
 18379  9708  9732    1
 18380  9709  9733    1
 18381  9710  9711   un
 18382  9710  9734    1
 18383  9711  9735    1
 18384  9712  9713   un
 18385  9712  9736    1
 18386  9713  9737    1
 18387  9714  9715   un
 18388  9714  9738    1
 18389  9715  9739    1
 18390  9716  9717   un
 18391  9716  9740    1
 18392  9717  9741    1
 18393  9718  9719   un
 18394  9718  9742    1
 18395  9719  9743    1
 18396  9744  9763    1
 18397  9744  9783    1
 18398  9744  9795    1
 18399  9745  9764    1
 18400  9746  9765    1
 18401  9746  9786    1
 18402  9747  9766    1
 18403  9747  9787    1
 18404  9747  9797    1
 18405  9748  9767    1
 18406  9749  9768    1
 18407  9749  9789    1
 18408  9750  9769    1
 18409  9750  9790    1
 18410  9750  9793    1
 18411  9751  9770    1
 18412  9752  9771    1
 18413  9753  9772    1
 18414  9753  9786    1
 18415  9754  9773    1
 18416  9755  9774    1
 18417  9755  9789    1
 18418  9756  9775    1
 18419  9757  9776    1
 18420  9758  9777    1
 18421  9759  9778    1
 18422  9759  9794    1
 18423  9759  9797    1
 18424  9760  9779    1
 18425  9760  9792    1
 18426  9760  9795    1
 18427  9761  9780    1
 18428  9762  9781    1
 18429  9762  9793    1
 18430  9762  9796    1
 18431  9763  9783    1
 18432  9763  9795    1
 18433  9765  9786    1
 18434  9766  9787    1
 18435  9766  9797    1
 18436  9768  9789    1
 18437  9769  9790    1
 18438  9769  9793    1
 18439  9772  9786    1
 18440  9774  9789    1
 18441  9778  9794    1
 18442  9778  9797    1
 18443  9779  9792    1
 18444  9779  9795    1
 18445  9781  9793    1
 18446  9781  9796    1
 18447  9782  9816    1
 18448  9782  9824    1
 18449  9782  9827    1
 18450  9782  9831    1
 18451  9782  9839    1
 18452  9782  9842    1
 18453  9783  9788   un
 18454  9783  9795   un
 18455  9783  9825    1
 18456  9783  9840    1
 18457  9783  9874   un
 18458  9783 10089    1
 18459  9783 10109    1
 18460  9783 10126   un
 18461  9783 10135   un
 18462  9783 10141   un
 18463  9783 10168    1
 18464  9783 10186    1
 18465  9784  9790   un
 18466  9784  9796   un
 18467  9784  9817    1
 18468  9784  9823    1
 18469  9784  9832    1
 18470  9784  9838    1
 18471  9785  9818    1
 18472  9785  9826    1
 18473  9785  9829    1
 18474  9785  9833    1
 18475  9785  9841    1
 18476  9785  9844    1
 18477  9786  9830    1
 18478  9786  9845    1
 18479  9787  9791   un
 18480  9787  9797   un
 18481  9787  9821    1
 18482  9787  9836    1
 18483  9787 10118   un
 18484  9787 10166    1
 18485  9787 10184    1
 18486  9788  9792   un
 18487  9788  9819    1
 18488  9788  9825    1
 18489  9788  9834    1
 18490  9788  9840    1
 18491  9788 10126   un
 18492  9788 10168    1
 18493  9788 10186    1
 18494  9789  9828    1
 18495  9789  9843    1
 18496  9790  9793   un
 18497  9790  9823    1
 18498  9790  9838    1
 18499  9791  9794   un
 18500  9791  9820    1
 18501  9791  9821    1
 18502  9791  9835    1
 18503  9791  9836    1
 18504  9791  9884   un
 18505  9791  9926   un
 18506  9791 10118   un
 18507  9791 10140   un
 18508  9791 10146   un
 18509  9791 10162    1
 18510  9791 10166    1
 18511  9791 10180    1
 18512  9791 10184    1
 18513  9792  9795   un
 18514  9792  9819    1
 18515  9792  9834    1
 18516  9792 10083    1
 18517  9792 10103    1
 18518  9792 10126   un
 18519  9793  9796   un
 18520  9794  9797   un
 18521  9794  9820    1
 18522  9794  9835    1
 18523  9794  9890   un
 18524  9794 10118   un
 18525  9794 10150   un
 18526  9794 10153    1
 18527  9794 10162    1
 18528  9794 10171    1
 18529  9794 10180    1
 18530  9795  9892   un
 18531  9795  9930   un
 18532  9795 10083    1
 18533  9795 10089    1
 18534  9795 10103    1
 18535  9795 10109    1
 18536  9795 10126   un
 18537  9796  9817    1
 18538  9796  9832    1
 18539  9797 10118   un
 18540  9797 10153    1
 18541  9797 10171    1
 18542  9800 10010   un
 18543  9801 10012   un
 18544  9806 10005   un
 18545  9807 10006   un
 18546  9810  9944   un
 18547  9811  9941   un
 18548  9816  9831    1
 18549  9817  9832    1
 18550  9818  9833    1
 18551  9819  9834    1
 18552  9820  9835    1
 18553  9821  9836    1
 18554  9822  9837    1
 18555  9823  9838    1
 18556  9824  9839    1
 18557  9825  9840    1
 18558  9826  9841    1
 18559  9827  9842    1
 18560  9828  9843    1
 18561  9829  9844    1
 18562  9830  9845    1
 18563  9846  9847   un
 18564  9846  9848   un
 18565  9846  9852   un
 18566  9846  9854   un
 18567  9846  9856   un
 18568  9846  9875   un
 18569  9846  9898   un
 18570  9846  9917   un
 18571  9846 10079    1
 18572  9846 10088    1
 18573  9846 10090    1
 18574  9846 10092    1
 18575  9846 10099    1
 18576  9846 10108    1
 18577  9846 10110    1
 18578  9846 10112    1
 18579  9847  9848   un
 18580  9847  9850   un
 18581  9847  9854   un
 18582  9847  9858   un
 18583  9847  9879   un
 18584  9847  9900   un
 18585  9847  9921   un
 18586  9847 10082    1
 18587  9847 10086    1
 18588  9847 10090    1
 18589  9847 10092    1
 18590  9847 10102    1
 18591  9847 10106    1
 18592  9847 10110    1
 18593  9847 10112    1
 18594  9848  9850   un
 18595  9848  9852   un
 18596  9848  9860   un
 18597  9848  9883   un
 18598  9848  9902   un
 18599  9848  9925   un
 18600  9848 10085    1
 18601  9848 10086    1
 18602  9848 10088    1
 18603  9848 10092    1
 18604  9848 10105    1
 18605  9848 10106    1
 18606  9848 10108    1
 18607  9848 10112    1
 18608  9849  9861   un
 18609  9849  9885   un
 18610  9849  9903   un
 18611  9849 10081    1
 18612  9849 10093    1
 18613  9849 10101    1
 18614  9849 10113    1
 18615  9849 10123   un
 18616  9849 10128   un
 18617  9849 10131   un
 18618  9849 10134   un
 18619  9849 10147   un
 18620  9849 10158    1
 18621  9849 10159    1
 18622  9849 10176    1
 18623  9849 10177    1
 18624  9850  9852   un
 18625  9850  9854   un
 18626  9850  9863   un
 18627  9850  9887   un
 18628  9850  9905   un
 18629  9850  9927   un
 18630  9850 10082    1
 18631  9850 10085    1
 18632  9850 10086    1
 18633  9850 10095    1
 18634  9850 10102    1
 18635  9850 10105    1
 18636  9850 10106    1
 18637  9850 10115    1
 18638  9851  9865   un
 18639  9851  9889   un
 18640  9851  9907   un
 18641  9851 10084    1
 18642  9851 10096    1
 18643  9851 10104    1
 18644  9851 10116    1
 18645  9851 10120   un
 18646  9851 10127   un
 18647  9851 10130   un
 18648  9851 10133   un
 18649  9851 10149   un
 18650  9851 10154    1
 18651  9851 10161    1
 18652  9851 10172    1
 18653  9851 10179    1
 18654  9852  9854   un
 18655  9852  9867   un
 18656  9852  9891   un
 18657  9852  9909   un
 18658  9852  9929   un
 18659  9852 10079    1
 18660  9852 10085    1
 18661  9852 10088    1
 18662  9852 10095    1
 18663  9852 10099    1
 18664  9852 10105    1
 18665  9852 10108    1
 18666  9852 10115    1
 18667  9853  9869   un
 18668  9853  9893   un
 18669  9853  9911   un
 18670  9853 10078    1
 18671  9853 10094    1
 18672  9853 10098    1
 18673  9853 10114    1
 18674  9853 10119   un
 18675  9853 10124   un
 18676  9853 10129   un
 18677  9853 10132   un
 18678  9853 10151   un
 18679  9853 10156    1
 18680  9853 10163    1
 18681  9853 10174    1
 18682  9853 10181    1
 18683  9854  9871   un
 18684  9854  9895   un
 18685  9854  9913   un
 18686  9854  9931   un
 18687  9854 10079    1
 18688  9854 10082    1
 18689  9854 10090    1
 18690  9854 10095    1
 18691  9854 10099    1
 18692  9854 10102    1
 18693  9854 10110    1
 18694  9854 10115    1
 18695  9855 10005   un
 18696  9856 10007   un
 18697  9857 10009   un
 18698  9858 10011   un
 18699  9859 10013   un
 18700  9860 10015   un
 18701  9861 10017   un
 18702  9862 10018   un
 18703  9862 10129   un
 18704  9863 10019   un
 18705  9864 10020   un
 18706  9864 10130   un
 18707  9865 10021   un
 18708  9866 10022   un
 18709  9866 10131   un
 18710  9867 10023   un
 18711  9868 10024   un
 18712  9868 10132   un
 18713  9869 10025   un
 18714  9870 10026   un
 18715  9870 10133   un
 18716  9871 10027   un
 18717  9872 10028   un
 18718  9872 10134   un
 18719  9873  9933   un
 18720  9874  9934   un
 18721  9875  9935   un
 18722  9876  9936   un
 18723  9877  9937   un
 18724  9878  9938   un
 18725  9879  9939   un
 18726  9880  9940   un
 18727  9881  9941   un
 18728  9882  9942   un
 18729  9883  9943   un
 18730  9884  9944   un
 18731  9885  9945   un
 18732  9886  9946   un
 18733  9887  9947   un
 18734  9888  9948   un
 18735  9889  9949   un
 18736  9890  9950   un
 18737  9891  9951   un
 18738  9892  9952   un
 18739  9893  9953   un
 18740  9894  9954   un
 18741  9895  9955   un
 18742  9896  9956   un
 18743  9897 10016   un
 18744  9898 10015   un
 18745  9899 10008   un
 18746  9900 10007   un
 18747  9901 10012   un
 18748  9902 10011   un
 18749  9903 10028   un
 18750  9904 10025   un
 18751  9904 10129   un
 18752  9905 10027   un
 18753  9906 10026   un
 18754  9906 10130   un
 18755  9907 10020   un
 18756  9908 10017   un
 18757  9908 10131   un
 18758  9909 10019   un
 18759  9910 10018   un
 18760  9910 10132   un
 18761  9911 10024   un
 18762  9912 10021   un
 18763  9912 10133   un
 18764  9913 10023   un
 18765  9914 10022   un
 18766  9914 10134   un
 18767  9915  9956   un
 18768  9915 10117   un
 18769  9916  9953   un
 18770  9916 10119   un
 18771  9917  9955   un
 18772  9918  9954   un
 18773  9919  9948   un
 18774  9919 10122   un
 18775  9920  9945   un
 18776  9920 10123   un
 18777  9921  9947   un
 18778  9922  9946   un
 18779  9923  9952   un
 18780  9923 10126   un
 18781  9924  9949   un
 18782  9924 10127   un
 18783  9925  9951   un
 18784  9926  9950   un
 18785  9927  9943   un
 18786  9928  9942   un
 18787  9929  9935   un
 18788  9930  9934   un
 18789  9931  9939   un
 18790  9932  9938   un
 18791  9933  9957   un
 18792  9934  9958   un
 18793  9935  9959   un
 18794  9936  9960   un
 18795  9937  9961   un
 18796  9938  9962   un
 18797  9939  9963   un
 18798  9940  9964   un
 18799  9941  9965   un
 18800  9942  9966   un
 18801  9943  9967   un
 18802  9944  9968   un
 18803  9945  9969   un
 18804  9946  9970   un
 18805  9947  9971   un
 18806  9948  9972   un
 18807  9949  9973   un
 18808  9950  9974   un
 18809  9951  9975   un
 18810  9952  9976   un
 18811  9953  9977   un
 18812  9954  9978   un
 18813  9955  9979   un
 18814  9956  9980   un
 18815  9957  9958   un
 18816  9957  9981    1
 18817  9958  9982    1
 18818  9959  9960   un
 18819  9959  9983    1
 18820  9960  9984    1
 18821  9961  9962   un
 18822  9961  9985    1
 18823  9962  9986    1
 18824  9963  9964   un
 18825  9963  9987    1
 18826  9964  9988    1
 18827  9965  9966   un
 18828  9965  9989    1
 18829  9966  9990    1
 18830  9967  9968   un
 18831  9967  9991    1
 18832  9968  9992    1
 18833  9969  9970   un
 18834  9969  9993    1
 18835  9970  9994    1
 18836  9971  9972   un
 18837  9971  9995    1
 18838  9972  9996    1
 18839  9973  9974   un
 18840  9973  9997    1
 18841  9974  9998    1
 18842  9975  9976   un
 18843  9975  9999    1
 18844  9976 10000    1
 18845  9977  9978   un
 18846  9977 10001    1
 18847  9978 10002    1
 18848  9979  9980   un
 18849  9979 10003    1
 18850  9980 10004    1
 18851 10005 10029   un
 18852 10006 10030   un
 18853 10007 10031   un
 18854 10008 10032   un
 18855 10009 10033   un
 18856 10010 10034   un
 18857 10011 10035   un
 18858 10012 10036   un
 18859 10013 10037   un
 18860 10014 10038   un
 18861 10015 10039   un
 18862 10016 10040   un
 18863 10017 10041   un
 18864 10018 10042   un
 18865 10019 10043   un
 18866 10020 10044   un
 18867 10021 10045   un
 18868 10022 10046   un
 18869 10023 10047   un
 18870 10024 10048   un
 18871 10025 10049   un
 18872 10026 10050   un
 18873 10027 10051   un
 18874 10028 10052   un
 18875 10029 10030   un
 18876 10029 10053    1
 18877 10030 10054    1
 18878 10031 10032   un
 18879 10031 10055    1
 18880 10032 10056    1
 18881 10033 10034   un
 18882 10033 10057    1
 18883 10034 10058    1
 18884 10035 10036   un
 18885 10035 10059    1
 18886 10036 10060    1
 18887 10037 10038   un
 18888 10037 10061    1
 18889 10038 10062    1
 18890 10039 10040   un
 18891 10039 10063    1
 18892 10040 10064    1
 18893 10041 10042   un
 18894 10041 10065    1
 18895 10042 10066    1
 18896 10043 10044   un
 18897 10043 10067    1
 18898 10044 10068    1
 18899 10045 10046   un
 18900 10045 10069    1
 18901 10046 10070    1
 18902 10047 10048   un
 18903 10047 10071    1
 18904 10048 10072    1
 18905 10049 10050   un
 18906 10049 10073    1
 18907 10050 10074    1
 18908 10051 10052   un
 18909 10051 10075    1
 18910 10052 10076    1
 18911 10077 10097    1
 18912 10077 10117    1
 18913 10078 10098    1
 18914 10078 10119    1
 18915 10078 10132    1
 18916 10079 10099    1
 18917 10080 10100    1
 18918 10080 10122    1
 18919 10081 10101    1
 18920 10081 10123    1
 18921 10081 10134    1
 18922 10082 10102    1
 18923 10083 10103    1
 18924 10083 10126    1
 18925 10084 10104    1
 18926 10084 10127    1
 18927 10084 10130    1
 18928 10085 10105    1
 18929 10086 10106    1
 18930 10087 10107    1
 18931 10087 10122    1
 18932 10088 10108    1
 18933 10089 10109    1
 18934 10089 10126    1
 18935 10090 10110    1
 18936 10091 10111    1
 18937 10091 10117    1
 18938 10092 10112    1
 18939 10093 10113    1
 18940 10093 10131    1
 18941 10093 10134    1
 18942 10094 10114    1
 18943 10094 10129    1
 18944 10094 10132    1
 18945 10095 10115    1
 18946 10096 10116    1
 18947 10096 10130    1
 18948 10096 10133    1
 18949 10097 10117    1
 18950 10098 10119    1
 18951 10098 10132    1
 18952 10100 10122    1
 18953 10101 10123    1
 18954 10101 10134    1
 18955 10103 10126    1
 18956 10104 10127    1
 18957 10104 10130    1
 18958 10107 10122    1
 18959 10109 10126    1
 18960 10111 10117    1
 18961 10113 10131    1
 18962 10113 10134    1
 18963 10114 10129    1
 18964 10114 10132    1
 18965 10116 10130    1
 18966 10116 10133    1
 18967 10117 10165    1
 18968 10117 10183    1
 18969 10118 10153    1
 18970 10118 10162    1
 18971 10118 10166    1
 18972 10118 10171    1
 18973 10118 10180    1
 18974 10118 10184    1
 18975 10119 10124   un
 18976 10119 10132   un
 18977 10119 10163    1
 18978 10119 10181    1
 18979 10120 10127   un
 18980 10120 10133   un
 18981 10120 10154    1
 18982 10120 10161    1
 18983 10120 10172    1
 18984 10120 10179    1
 18985 10121 10155    1
 18986 10121 10164    1
 18987 10121 10169    1
 18988 10121 10173    1
 18989 10121 10182    1
 18990 10121 10187    1
 18991 10122 10170    1
 18992 10122 10188    1
 18993 10123 10128   un
 18994 10123 10134   un
 18995 10123 10159    1
 18996 10123 10177    1
 18997 10124 10129   un
 18998 10124 10156    1
 18999 10124 10163    1
 19000 10124 10174    1
 19001 10124 10181    1
 19002 10125 10157    1
 19003 10125 10160    1
 19004 10125 10167    1
 19005 10125 10175    1
 19006 10125 10178    1
 19007 10125 10185    1
 19008 10126 10168    1
 19009 10126 10186    1
 19010 10127 10130   un
 19011 10127 10161    1
 19012 10127 10179    1
 19013 10128 10131   un
 19014 10128 10158    1
 19015 10128 10159    1
 19016 10128 10176    1
 19017 10128 10177    1
 19018 10129 10132   un
 19019 10129 10156    1
 19020 10129 10174    1
 19021 10130 10133   un
 19022 10131 10134   un
 19023 10131 10158    1
 19024 10131 10176    1
 19025 10133 10154    1
 19026 10133 10172    1
 19027 10153 10171    1
 19028 10154 10172    1
 19029 10155 10173    1
 19030 10156 10174    1
 19031 10157 10175    1
 19032 10158 10176    1
 19033 10159 10177    1
 19034 10160 10178    1
 19035 10161 10179    1
 19036 10162 10180    1
 19037 10163 10181    1
 19038 10164 10182    1
 19039 10165 10183    1
 19040 10166 10184    1
 19041 10167 10185    1
 19042 10168 10186    1
 19043 10169 10187    1
 19044 10170 10188    1
@<TRIPOS>SUBSTRUCTURE
     1 RES1        1 GROUP             0 ****  ****    0  
@<TRIPOS>CRYSIN
   17.8348   17.8348   17.8348   90.0000   90.0000   90.0000     1     1
