@<TRIPOS>MOLECULE
image0
   484   956     1     0     0
SMALL
NO_CHARGES
****
Generated from the CSD

@<TRIPOS>ATOM
     1 Zr1      2.4585   9.1159   0.2119   Zr        1 RES1   0.0000
     2 Zr2      6.4589  17.6363   0.2119   Zr        1 RES1   0.0000
     3 Zr3      6.4589   9.1159   8.7055   Zr        1 RES1   0.0000
     4 Zr4      2.4585  17.6363   8.7055   Zr        1 RES1   0.0000
     5 Zr5      0.2119   2.4585   9.1159   Zr        1 RES1   0.0000
     6 Zr6      0.2119   6.4589  17.6363   Zr        1 RES1   0.0000
     7 Zr7      8.7055   6.4589   9.1159   Zr        1 RES1   0.0000
     8 Zr8      8.7055   2.4585  17.6363   Zr        1 RES1   0.0000
     9 Zr9      9.1159   0.2119   2.4585   Zr        1 RES1   0.0000
    10 Zr10    17.6363   0.2119   6.4589   Zr        1 RES1   0.0000
    11 Zr11     9.1159   8.7055   6.4589   Zr        1 RES1   0.0000
    12 Zr12    17.6363   8.7055   2.4585   Zr        1 RES1   0.0000
    13 Zr13    15.3763   8.7189  17.6229   Zr        1 RES1   0.0000
    14 Zr14    11.3759   0.1985  17.6229   Zr        1 RES1   0.0000
    15 Zr15    11.3759   8.7189   9.1293   Zr        1 RES1   0.0000
    16 Zr16    15.3763   0.1985   9.1293   Zr        1 RES1   0.0000
    17 Zr17    17.6229  15.3763   8.7189   Zr        1 RES1   0.0000
    18 Zr18    17.6229  11.3759   0.1985   Zr        1 RES1   0.0000
    19 Zr19     9.1293  11.3759   8.7189   Zr        1 RES1   0.0000
    20 Zr20     9.1293  15.3763   0.1985   Zr        1 RES1   0.0000
    21 Zr21     8.7189  17.6229  15.3763   Zr        1 RES1   0.0000
    22 Zr22     0.1985  17.6229  11.3759   Zr        1 RES1   0.0000
    23 Zr23     8.7189   9.1293  11.3759   Zr        1 RES1   0.0000
    24 Zr24     0.1985   9.1293  15.3763   Zr        1 RES1   0.0000
    25 O1       3.7275   7.2855   0.1427   O.co2     1 RES1   0.0000
    26 O2       5.1899   1.6319   0.1427   O.co2     1 RES1   0.0000
    27 O3       5.1899   7.2855   8.7747   O.co2     1 RES1   0.0000
    28 O4       3.7275   1.6319   8.7747   O.co2     1 RES1   0.0000
    29 O5       0.1427   3.7275   7.2855   O.co2     1 RES1   0.0000
    30 O6       0.1427   5.1899   1.6319   O.co2     1 RES1   0.0000
    31 O7       8.7747   5.1899   7.2855   O.co2     1 RES1   0.0000
    32 O8       8.7747   3.7275   1.6319   O.co2     1 RES1   0.0000
    33 O9       7.2855   0.1427   3.7275   O.co2     1 RES1   0.0000
    34 O10      1.6319   0.1427   5.1899   O.co2     1 RES1   0.0000
    35 O11      7.2855   8.7747   5.1899   O.co2     1 RES1   0.0000
    36 O12      1.6319   8.7747   3.7275   O.co2     1 RES1   0.0000
    37 O13     14.1073  10.5493  17.6921   O.co2     1 RES1   0.0000
    38 O14     12.6449  16.2029  17.6921   O.co2     1 RES1   0.0000
    39 O15     12.6449  10.5493   9.0601   O.co2     1 RES1   0.0000
    40 O16     14.1073  16.2029   9.0601   O.co2     1 RES1   0.0000
    41 O17     17.6921  14.1073  10.5493   O.co2     1 RES1   0.0000
    42 O18     17.6921  12.6449  16.2029   O.co2     1 RES1   0.0000
    43 O19      9.0601  12.6449  10.5493   O.co2     1 RES1   0.0000
    44 O20      9.0601  14.1073  16.2029   O.co2     1 RES1   0.0000
    45 O21     10.5493  17.6921  14.1073   O.co2     1 RES1   0.0000
    46 O22     16.2029  17.6921  12.6449   O.co2     1 RES1   0.0000
    47 O23     10.5493   9.0601  12.6449   O.co2     1 RES1   0.0000
    48 O24     16.2029   9.0601  14.1073   O.co2     1 RES1   0.0000
    49 O25      3.3957  11.1396   0.4387   O.co2     1 RES1   0.0000
    50 O26      5.5217  15.6126   0.4387   O.co2     1 RES1   0.0000
    51 O27      5.5217  11.1396   8.4787   O.co2     1 RES1   0.0000
    52 O28      3.3957  15.6126   8.4787   O.co2     1 RES1   0.0000
    53 O29      0.4387   3.3957  11.1396   O.co2     1 RES1   0.0000
    54 O30      0.4387   5.5217  15.6126   O.co2     1 RES1   0.0000
    55 O31      8.4787   5.5217  11.1396   O.co2     1 RES1   0.0000
    56 O32      8.4787   3.3957  15.6126   O.co2     1 RES1   0.0000
    57 O33     11.1396   0.4387   3.3957   O.co2     1 RES1   0.0000
    58 O34     15.6126   0.4387   5.5217   O.co2     1 RES1   0.0000
    59 O35     11.1396   8.4787   5.5217   O.co2     1 RES1   0.0000
    60 O36     15.6126   8.4787   3.3957   O.co2     1 RES1   0.0000
    61 O37     14.4391   6.6952  17.3961   O.co2     1 RES1   0.0000
    62 O38     12.3131   2.2222  17.3961   O.co2     1 RES1   0.0000
    63 O39     12.3131   6.6952   9.3561   O.co2     1 RES1   0.0000
    64 O40     14.4391   2.2222   9.3561   O.co2     1 RES1   0.0000
    65 O41     17.3961  14.4391   6.6952   O.co2     1 RES1   0.0000
    66 O42     17.3961  12.3131   2.2222   O.co2     1 RES1   0.0000
    67 O43      9.3561  12.3131   6.6952   O.co2     1 RES1   0.0000
    68 O44      9.3561  14.4391   2.2222   O.co2     1 RES1   0.0000
    69 O45      6.6952  17.3961  14.4391   O.co2     1 RES1   0.0000
    70 O46      2.2222  17.3961  12.3131   O.co2     1 RES1   0.0000
    71 O47      6.6952   9.3561  12.3131   O.co2     1 RES1   0.0000
    72 O48      2.2222   9.3561  14.4391   O.co2     1 RES1   0.0000
    73 O49      3.3815   9.0476   2.2525   O.co2     1 RES1   0.0000
    74 O50      5.5359  -0.1302   2.2525   O.co2     1 RES1   0.0000
    75 O51      5.5359   9.0476   6.6649   O.co2     1 RES1   0.0000
    76 O52      3.3815  -0.1302   6.6649   O.co2     1 RES1   0.0000
    77 O53      2.2525   3.3815   9.0476   O.co2     1 RES1   0.0000
    78 O54      2.2525   5.5359  -0.1302   O.co2     1 RES1   0.0000
    79 O55      6.6649   5.5359   9.0476   O.co2     1 RES1   0.0000
    80 O56      6.6649   3.3815  -0.1302   O.co2     1 RES1   0.0000
    81 O57      9.0476   2.2525   3.3815   O.co2     1 RES1   0.0000
    82 O58     -0.1302   2.2525   5.5359   O.co2     1 RES1   0.0000
    83 O59      9.0476   6.6649   5.5359   O.co2     1 RES1   0.0000
    84 O60     -0.1302   6.6649   3.3815   O.co2     1 RES1   0.0000
    85 O61     14.4533   8.7872  15.5823   O.co2     1 RES1   0.0000
    86 O62     12.2989  17.9650  15.5823   O.co2     1 RES1   0.0000
    87 O63     12.2989   8.7872  11.1699   O.co2     1 RES1   0.0000
    88 O64     14.4533  17.9650  11.1699   O.co2     1 RES1   0.0000
    89 O65     15.5823  14.4533   8.7872   O.co2     1 RES1   0.0000
    90 O66     15.5823  12.2989  17.9650   O.co2     1 RES1   0.0000
    91 O67     11.1699  12.2989   8.7872   O.co2     1 RES1   0.0000
    92 O68     11.1699  14.4533  17.9650   O.co2     1 RES1   0.0000
    93 O69      8.7872  15.5823  14.4533   O.co2     1 RES1   0.0000
    94 O70     17.9650  15.5823  12.2989   O.co2     1 RES1   0.0000
    95 O71      8.7872  11.1699  12.2989   O.co2     1 RES1   0.0000
    96 O72     17.9650  11.1699  14.4533   O.co2     1 RES1   0.0000
    97 O73      3.7239   9.3437  16.2190   O.co2     1 RES1   0.0000
    98 O74      5.1935  17.4085  16.2190   O.co2     1 RES1   0.0000
    99 O75      5.1935   9.3437  10.5332   O.co2     1 RES1   0.0000
   100 O76      3.7239  17.4085  10.5332   O.co2     1 RES1   0.0000
   101 O77     16.2190   3.7239   9.3437   O.co2     1 RES1   0.0000
   102 O78     16.2190   5.1935  17.4085   O.co2     1 RES1   0.0000
   103 O79     10.5332   5.1935   9.3437   O.co2     1 RES1   0.0000
   104 O80     10.5332   3.7239  17.4085   O.co2     1 RES1   0.0000
   105 O81      9.3437  16.2190   3.7239   O.co2     1 RES1   0.0000
   106 O82     17.4085  16.2190   5.1935   O.co2     1 RES1   0.0000
   107 O83      9.3437  10.5332   5.1935   O.co2     1 RES1   0.0000
   108 O84     17.4085  10.5332   3.7239   O.co2     1 RES1   0.0000
   109 O85     14.1109   8.4911   1.6158   O.co2     1 RES1   0.0000
   110 O86     12.6413   0.4263   1.6158   O.co2     1 RES1   0.0000
   111 O87     12.6413   8.4911   7.3016   O.co2     1 RES1   0.0000
   112 O88     14.1109   0.4263   7.3016   O.co2     1 RES1   0.0000
   113 O89      1.6158  14.1109   8.4911   O.co2     1 RES1   0.0000
   114 O90      1.6158  12.6413   0.4263   O.co2     1 RES1   0.0000
   115 O91      7.3016  12.6413   8.4911   O.co2     1 RES1   0.0000
   116 O92      7.3016  14.1109   0.4263   O.co2     1 RES1   0.0000
   117 O93      8.4911   1.6158  14.1109   O.co2     1 RES1   0.0000
   118 O94      0.4263   1.6158  12.6413   O.co2     1 RES1   0.0000
   119 O95      8.4911   7.3016  12.6413   O.co2     1 RES1   0.0000
   120 O96      0.4263   7.3016  14.1109   O.co2     1 RES1   0.0000
   121 C1       2.8607  12.2900   0.4280   C.2       1 RES1   0.0000
   122 C2       6.0567  14.4622   0.4280   C.2       1 RES1   0.0000
   123 C3       6.0567  12.2900   8.4894   C.2       1 RES1   0.0000
   124 C4       2.8607  14.4622   8.4894   C.2       1 RES1   0.0000
   125 C5       0.4280   2.8607  12.2900   C.2       1 RES1   0.0000
   126 C6       0.4280   6.0567  14.4622   C.2       1 RES1   0.0000
   127 C7       8.4894   6.0567  12.2900   C.2       1 RES1   0.0000
   128 C8       8.4894   2.8607  14.4622   C.2       1 RES1   0.0000
   129 C9      12.2900   0.4280   2.8607   C.2       1 RES1   0.0000
   130 C10     14.4622   0.4280   6.0567   C.2       1 RES1   0.0000
   131 C11     12.2900   8.4894   6.0567   C.2       1 RES1   0.0000
   132 C12     14.4622   8.4894   2.8607   C.2       1 RES1   0.0000
   133 C13     14.9741   5.5448  17.4068   C.2       1 RES1   0.0000
   134 C14     11.7781   3.3726  17.4068   C.2       1 RES1   0.0000
   135 C15     11.7781   5.5448   9.3454   C.2       1 RES1   0.0000
   136 C16     14.9741   3.3726   9.3454   C.2       1 RES1   0.0000
   137 C17     17.4068  14.9741   5.5448   C.2       1 RES1   0.0000
   138 C18     17.4068  11.7781   3.3726   C.2       1 RES1   0.0000
   139 C19      9.3454  11.7781   5.5448   C.2       1 RES1   0.0000
   140 C20      9.3454  14.9741   3.3726   C.2       1 RES1   0.0000
   141 C21      5.5448  17.4068  14.9741   C.2       1 RES1   0.0000
   142 C22      3.3726  17.4068  11.7781   C.2       1 RES1   0.0000
   143 C23      5.5448   9.3454  11.7781   C.2       1 RES1   0.0000
   144 C24      3.3726   9.3454  14.9741   C.2       1 RES1   0.0000
   145 C25      3.8202  13.4742   0.4334   C.2       1 RES1   0.0000
   146 C26      5.0972  13.2780   0.4334   C.2       1 RES1   0.0000
   147 C27      5.0972  13.4742   8.4840   C.2       1 RES1   0.0000
   148 C28      3.8202  13.2780   8.4840   C.2       1 RES1   0.0000
   149 C29      0.4334   3.8202  13.4742   C.2       1 RES1   0.0000
   150 C30      0.4334   5.0972  13.2780   C.2       1 RES1   0.0000
   151 C31      8.4840   5.0972  13.4742   C.2       1 RES1   0.0000
   152 C32      8.4840   3.8202  13.2780   C.2       1 RES1   0.0000
   153 C33     13.4742   0.4334   3.8202   C.2       1 RES1   0.0000
   154 C34     13.2780   0.4334   5.0972   C.2       1 RES1   0.0000
   155 C35     13.4742   8.4840   5.0972   C.2       1 RES1   0.0000
   156 C36     13.2780   8.4840   3.8202   C.2       1 RES1   0.0000
   157 C37     14.0146   4.3606  17.4014   C.2       1 RES1   0.0000
   158 C38     12.7376   4.5568  17.4014   C.2       1 RES1   0.0000
   159 C39     12.7376   4.3606   9.3508   C.2       1 RES1   0.0000
   160 C40     14.0146   4.5568   9.3508   C.2       1 RES1   0.0000
   161 C41     17.4014  14.0146   4.3606   C.2       1 RES1   0.0000
   162 C42     17.4014  12.7376   4.5568   C.2       1 RES1   0.0000
   163 C43      9.3508  12.7376   4.3606   C.2       1 RES1   0.0000
   164 C44      9.3508  14.0146   4.5568   C.2       1 RES1   0.0000
   165 C45      4.3606  17.4014  14.0146   C.2       1 RES1   0.0000
   166 C46      4.5568  17.4014  12.7376   C.2       1 RES1   0.0000
   167 C47      4.3606   9.3508  12.7376   C.2       1 RES1   0.0000
   168 C48      4.5568   9.3508  14.0146   C.2       1 RES1   0.0000
   169 H1       3.4867  14.3427   0.4352   H         1 RES1   0.0000
   170 H2       5.4307  12.4095   0.4352   H         1 RES1   0.0000
   171 H3       5.4307  14.3427   8.4822   H         1 RES1   0.0000
   172 H4       3.4867  12.4095   8.4822   H         1 RES1   0.0000
   173 H5       0.4352   3.4867  14.3427   H         1 RES1   0.0000
   174 H6       0.4352   5.4307  12.4095   H         1 RES1   0.0000
   175 H7       8.4822   5.4307  14.3427   H         1 RES1   0.0000
   176 H8       8.4822   3.4867  12.4095   H         1 RES1   0.0000
   177 H9      14.3427   0.4352   3.4867   H         1 RES1   0.0000
   178 H10     12.4095   0.4352   5.4307   H         1 RES1   0.0000
   179 H11     14.3427   8.4822   5.4307   H         1 RES1   0.0000
   180 H12     12.4095   8.4822   3.4867   H         1 RES1   0.0000
   181 H13     14.3481   3.4921  17.3996   H         1 RES1   0.0000
   182 H14     12.4041   5.4253  17.3996   H         1 RES1   0.0000
   183 H15     12.4041   3.4921   9.3526   H         1 RES1   0.0000
   184 H16     14.3481   5.4253   9.3526   H         1 RES1   0.0000
   185 H17     17.3996  14.3481   3.4921   H         1 RES1   0.0000
   186 H18     17.3996  12.4041   5.4253   H         1 RES1   0.0000
   187 H19      9.3526  12.4041   3.4921   H         1 RES1   0.0000
   188 H20      9.3526  14.3481   5.4253   H         1 RES1   0.0000
   189 H21      3.4921  17.3996  14.3481   H         1 RES1   0.0000
   190 H22      5.4253  17.3996  12.4041   H         1 RES1   0.0000
   191 H23      3.4921   9.3526  12.4041   H         1 RES1   0.0000
   192 H24      5.4253   9.3526  14.3481   H         1 RES1   0.0000
   193 C49      3.3993   6.0603   0.0000   C.2       1 RES1   0.0000
   194 C50      5.5181   2.8571   0.0000   C.2       1 RES1   0.0000
   195 C51      5.5181   6.0603   8.9174   C.2       1 RES1   0.0000
   196 C52      3.3993   2.8571   8.9174   C.2       1 RES1   0.0000
   197 C53      0.0000   3.3993   6.0603   C.2       1 RES1   0.0000
   198 C54      0.0000   5.5181   2.8571   C.2       1 RES1   0.0000
   199 C55      8.9174   5.5181   6.0603   C.2       1 RES1   0.0000
   200 C56      8.9174   3.3993   2.8571   C.2       1 RES1   0.0000
   201 C57      6.0603   0.0000   3.3993   C.2       1 RES1   0.0000
   202 C58      2.8571   0.0000   5.5181   C.2       1 RES1   0.0000
   203 C59      6.0603   8.9174   5.5181   C.2       1 RES1   0.0000
   204 C60      2.8571   8.9174   3.3993   C.2       1 RES1   0.0000
   205 C61     14.4355  11.7745  17.8348   C.2       1 RES1   0.0000
   206 C62     12.3167  14.9777  17.8348   C.2       1 RES1   0.0000
   207 C63     12.3167  11.7745   8.9174   C.2       1 RES1   0.0000
   208 C64     14.4355  14.9777   8.9174   C.2       1 RES1   0.0000
   209 C65     17.8348  14.4355  11.7745   C.2       1 RES1   0.0000
   210 C66     17.8348  12.3167  14.9777   C.2       1 RES1   0.0000
   211 C67      8.9174  12.3167  11.7745   C.2       1 RES1   0.0000
   212 C68      8.9174  14.4355  14.9777   C.2       1 RES1   0.0000
   213 C69     11.7745  17.8348  14.4355   C.2       1 RES1   0.0000
   214 C70     14.9777  17.8348  12.3167   C.2       1 RES1   0.0000
   215 C71     11.7745   8.9174  12.3167   C.2       1 RES1   0.0000
   216 C72     14.9777   8.9174  14.4355   C.2       1 RES1   0.0000
   217 C73      4.5782   5.1097   0.0018   C.2       1 RES1   0.0000
   218 C74      4.3392   3.8077   0.0018   C.2       1 RES1   0.0000
   219 C75      4.3392   5.1097   8.9156   C.2       1 RES1   0.0000
   220 C76      4.5782   3.8077   8.9156   C.2       1 RES1   0.0000
   221 C77      0.0018   4.5782   5.1097   C.2       1 RES1   0.0000
   222 C78      0.0018   4.3392   3.8077   C.2       1 RES1   0.0000
   223 C79      8.9156   4.3392   5.1097   C.2       1 RES1   0.0000
   224 C80      8.9156   4.5782   3.8077   C.2       1 RES1   0.0000
   225 C81      5.1097   0.0018   4.5782   C.2       1 RES1   0.0000
   226 C82      3.8077   0.0018   4.3392   C.2       1 RES1   0.0000
   227 C83      5.1097   8.9156   4.3392   C.2       1 RES1   0.0000
   228 C84      3.8077   8.9156   4.5782   C.2       1 RES1   0.0000
   229 C85     13.2566  12.7251  17.8330   C.2       1 RES1   0.0000
   230 C86     13.4956  14.0271  17.8330   C.2       1 RES1   0.0000
   231 C87     13.4956  12.7251   8.9192   C.2       1 RES1   0.0000
   232 C88     13.2566  14.0271   8.9192   C.2       1 RES1   0.0000
   233 C89     17.8330  13.2566  12.7251   C.2       1 RES1   0.0000
   234 C90     17.8330  13.4956  14.0271   C.2       1 RES1   0.0000
   235 C91      8.9192  13.4956  12.7251   C.2       1 RES1   0.0000
   236 C92      8.9192  13.2566  14.0271   C.2       1 RES1   0.0000
   237 C93     12.7251  17.8330  13.2566   C.2       1 RES1   0.0000
   238 C94     14.0271  17.8330  13.4956   C.2       1 RES1   0.0000
   239 C95     12.7251   8.9192  13.4956   C.2       1 RES1   0.0000
   240 C96     14.0271   8.9192  13.2566   C.2       1 RES1   0.0000
   241 H25      5.4503   5.4325   0.0018   H         1 RES1   0.0000
   242 H26      3.4671   3.4849   0.0018   H         1 RES1   0.0000
   243 H27      3.4671   5.4325   8.9156   H         1 RES1   0.0000
   244 H28      5.4503   3.4849   8.9156   H         1 RES1   0.0000
   245 H29      0.0018   5.4503   5.4325   H         1 RES1   0.0000
   246 H30      0.0018   3.4671   3.4849   H         1 RES1   0.0000
   247 H31      8.9156   3.4671   5.4325   H         1 RES1   0.0000
   248 H32      8.9156   5.4503   3.4849   H         1 RES1   0.0000
   249 H33      5.4325   0.0018   5.4503   H         1 RES1   0.0000
   250 H34      3.4849   0.0018   3.4671   H         1 RES1   0.0000
   251 H35      5.4325   8.9156   3.4671   H         1 RES1   0.0000
   252 H36      3.4849   8.9156   5.4503   H         1 RES1   0.0000
   253 H37     12.3845  12.4023  17.8330   H         1 RES1   0.0000
   254 H38     14.3677  14.3499  17.8330   H         1 RES1   0.0000
   255 H39     14.3677  12.4023   8.9192   H         1 RES1   0.0000
   256 H40     12.3845  14.3499   8.9192   H         1 RES1   0.0000
   257 H41     17.8330  12.3845  12.4023   H         1 RES1   0.0000
   258 H42     17.8330  14.3677  14.3499   H         1 RES1   0.0000
   259 H43      8.9192  14.3677  12.4023   H         1 RES1   0.0000
   260 H44      8.9192  12.3845  14.3499   H         1 RES1   0.0000
   261 H45     12.4023  17.8330  12.3845   H         1 RES1   0.0000
   262 H46     14.3499  17.8330  14.3677   H         1 RES1   0.0000
   263 H47     12.4023   8.9192  14.3677   H         1 RES1   0.0000
   264 H48     14.3499   8.9192  12.3845   H         1 RES1   0.0000
   265 O97      1.3644  10.5529  16.6809   O.3       1 RES1   0.0000
   266 O98      7.5530  16.1993  16.6809   O.3       1 RES1   0.0000
   267 O99      7.5530  10.5529  10.0713   O.3       1 RES1   0.0000
   268 O100     1.3644  16.1993  10.0713   O.3       1 RES1   0.0000
   269 O101    16.6809   1.3644  10.5529   O.3       1 RES1   0.0000
   270 O102    16.6809   7.5530  16.1993   O.3       1 RES1   0.0000
   271 O103    10.0713   7.5530  10.5529   O.3       1 RES1   0.0000
   272 O104    10.0713   1.3644  16.1993   O.3       1 RES1   0.0000
   273 O105    10.5529  16.6809   1.3644   O.3       1 RES1   0.0000
   274 O106    16.1993  16.6809   7.5530   O.3       1 RES1   0.0000
   275 O107    10.5529  10.0713   7.5530   O.3       1 RES1   0.0000
   276 O108    16.1993  10.0713   1.3644   O.3       1 RES1   0.0000
   277 O109    16.4704   7.2819   1.1539   O.3       1 RES1   0.0000
   278 O110    10.2818   1.6355   1.1539   O.3       1 RES1   0.0000
   279 O111    10.2818   7.2819   7.7635   O.3       1 RES1   0.0000
   280 O112    16.4704   1.6355   7.7635   O.3       1 RES1   0.0000
   281 O113     1.1539  16.4704   7.2819   O.3       1 RES1   0.0000
   282 O114     1.1539  10.2818   1.6355   O.3       1 RES1   0.0000
   283 O115     7.7635  10.2818   7.2819   O.3       1 RES1   0.0000
   284 O116     7.7635  16.4704   1.6355   O.3       1 RES1   0.0000
   285 O117     7.2819   1.1539  16.4704   O.3       1 RES1   0.0000
   286 O118     1.6355   1.1539  10.2818   O.3       1 RES1   0.0000
   287 O119     7.2819   7.7635  10.2818   O.3       1 RES1   0.0000
   288 O120     1.6355   7.7635  16.4704   O.3       1 RES1   0.0000
   289 O121     1.0630   7.8544   1.0630   O.3       1 RES1   0.0000
   290 O122     7.8544   1.0630   1.0630   O.3       1 RES1   0.0000
   291 O123     7.8544   7.8544   7.8544   O.3       1 RES1   0.0000
   292 O124     1.0630   1.0630   7.8544   O.3       1 RES1   0.0000
   293 O125    16.7718   9.9804  16.7718   O.3       1 RES1   0.0000
   294 O126     9.9804  16.7718  16.7718   O.3       1 RES1   0.0000
   295 O127     9.9804   9.9804   9.9804   O.3       1 RES1   0.0000
   296 O128    16.7718  16.7718   9.9804   O.3       1 RES1   0.0000
   297 O129     1.0630  10.1409  16.9502   O.3       1 RES1   0.0000
   298 O130     7.8544  16.6113  16.9502   O.3       1 RES1   0.0000
   299 O131     7.8544  10.1409   9.8020   O.3       1 RES1   0.0000
   300 O132     1.0630  16.6113   9.8020   O.3       1 RES1   0.0000
   301 O133    16.9502   1.0630  10.1409   O.3       1 RES1   0.0000
   302 O134    16.9502   7.8544  16.6113   O.3       1 RES1   0.0000
   303 O135     9.8020   7.8544  10.1409   O.3       1 RES1   0.0000
   304 O136     9.8020   1.0630  16.6113   O.3       1 RES1   0.0000
   305 O137    10.1409  16.9502   1.0630   O.3       1 RES1   0.0000
   306 O138    16.6113  16.9502   7.8544   O.3       1 RES1   0.0000
   307 O139    10.1409   9.8020   7.8544   O.3       1 RES1   0.0000
   308 O140    16.6113   9.8020   1.0630   O.3       1 RES1   0.0000
   309 O141    16.7718   7.6939   0.8846   O.3       1 RES1   0.0000
   310 O142     9.9804   1.2235   0.8846   O.3       1 RES1   0.0000
   311 O143     9.9804   7.6939   8.0328   O.3       1 RES1   0.0000
   312 O144    16.7718   1.2235   8.0328   O.3       1 RES1   0.0000
   313 O145     0.8846  16.7718   7.6939   O.3       1 RES1   0.0000
   314 O146     0.8846   9.9804   1.2235   O.3       1 RES1   0.0000
   315 O147     8.0328   9.9804   7.6939   O.3       1 RES1   0.0000
   316 O148     8.0328  16.7718   1.2235   O.3       1 RES1   0.0000
   317 O149     7.6939   0.8846  16.7718   O.3       1 RES1   0.0000
   318 O150     1.2235   0.8846   9.9804   O.3       1 RES1   0.0000
   319 O151     7.6939   8.0328   9.9804   O.3       1 RES1   0.0000
   320 O152     1.2235   8.0328  16.7718   O.3       1 RES1   0.0000
   321 O153     1.4000   7.5174   1.4000   O.3       1 RES1   0.0000
   322 O154     7.5174   1.4000   1.4000   O.3       1 RES1   0.0000
   323 O155     7.5174   7.5174   7.5174   O.3       1 RES1   0.0000
   324 O156     1.4000   1.4000   7.5174   O.3       1 RES1   0.0000
   325 O157    16.4348  10.3174  16.4348   O.3       1 RES1   0.0000
   326 O158    10.3174  16.4348  16.4348   O.3       1 RES1   0.0000
   327 O159    10.3174  10.3174  10.3174   O.3       1 RES1   0.0000
   328 O160    16.4348  16.4348  10.3174   O.3       1 RES1   0.0000
   329 Zr1      2.4585   9.1159  18.0467   Zr        1 RES1   0.0000
   330 Zr1     20.2933   9.1159   0.2119   Zr        1 RES1   0.0000
   331 Zr2      6.4589  -0.1985   0.2119   Zr        1 RES1   0.0000
   332 Zr2      6.4589  -0.1985  18.0467   Zr        1 RES1   0.0000
   333 Zr2      6.4589  17.6363  18.0467   Zr        1 RES1   0.0000
   334 Zr4      2.4585  -0.1985   8.7055   Zr        1 RES1   0.0000
   335 Zr4     20.2933  -0.1985   8.7055   Zr        1 RES1   0.0000
   336 Zr4     20.2933  17.6363   8.7055   Zr        1 RES1   0.0000
   337 Zr5      0.2119  20.2933   9.1159   Zr        1 RES1   0.0000
   338 Zr5     18.0467   2.4585   9.1159   Zr        1 RES1   0.0000
   339 Zr6      0.2119   6.4589  -0.1985   Zr        1 RES1   0.0000
   340 Zr6     18.0467   6.4589  -0.1985   Zr        1 RES1   0.0000
   341 Zr6     18.0467   6.4589  17.6363   Zr        1 RES1   0.0000
   342 Zr8      8.7055   2.4585  -0.1985   Zr        1 RES1   0.0000
   343 Zr8      8.7055  20.2933  -0.1985   Zr        1 RES1   0.0000
   344 Zr8      8.7055  20.2933  17.6363   Zr        1 RES1   0.0000
   345 Zr9      9.1159   0.2119  20.2933   Zr        1 RES1   0.0000
   346 Zr9      9.1159  18.0467   2.4585   Zr        1 RES1   0.0000
   347 Zr10    -0.1985   0.2119   6.4589   Zr        1 RES1   0.0000
   348 Zr10    -0.1985  18.0467   6.4589   Zr        1 RES1   0.0000
   349 Zr10    17.6363  18.0467   6.4589   Zr        1 RES1   0.0000
   350 Zr12    -0.1985   8.7055   2.4585   Zr        1 RES1   0.0000
   351 Zr12    -0.1985   8.7055  20.2933   Zr        1 RES1   0.0000
   352 Zr12    17.6363   8.7055  20.2933   Zr        1 RES1   0.0000
   353 Zr13    -2.4585   8.7189  17.6229   Zr        1 RES1   0.0000
   354 Zr13    15.3763   8.7189  -0.2119   Zr        1 RES1   0.0000
   355 Zr14    11.3759   0.1985  -0.2119   Zr        1 RES1   0.0000
   356 Zr14    11.3759  18.0333  -0.2119   Zr        1 RES1   0.0000
   357 Zr14    11.3759  18.0333  17.6229   Zr        1 RES1   0.0000
   358 Zr16    -2.4585   0.1985   9.1293   Zr        1 RES1   0.0000
   359 Zr16    -2.4585  18.0333   9.1293   Zr        1 RES1   0.0000
   360 Zr16    15.3763  18.0333   9.1293   Zr        1 RES1   0.0000
   361 Zr17    -0.2119  15.3763   8.7189   Zr        1 RES1   0.0000
   362 Zr17    17.6229  -2.4585   8.7189   Zr        1 RES1   0.0000
   363 Zr18    -0.2119  11.3759   0.1985   Zr        1 RES1   0.0000
   364 Zr18    -0.2119  11.3759  18.0333   Zr        1 RES1   0.0000
   365 Zr18    17.6229  11.3759  18.0333   Zr        1 RES1   0.0000
   366 Zr20     9.1293  -2.4585   0.1985   Zr        1 RES1   0.0000
   367 Zr20     9.1293  -2.4585  18.0333   Zr        1 RES1   0.0000
   368 Zr20     9.1293  15.3763  18.0333   Zr        1 RES1   0.0000
   369 Zr21     8.7189  -0.2119  15.3763   Zr        1 RES1   0.0000
   370 Zr21     8.7189  17.6229  -2.4585   Zr        1 RES1   0.0000
   371 Zr22     0.1985  -0.2119  11.3759   Zr        1 RES1   0.0000
   372 Zr22    18.0333  -0.2119  11.3759   Zr        1 RES1   0.0000
   373 Zr22    18.0333  17.6229  11.3759   Zr        1 RES1   0.0000
   374 Zr24     0.1985   9.1293  -2.4585   Zr        1 RES1   0.0000
   375 Zr24    18.0333   9.1293  -2.4585   Zr        1 RES1   0.0000
   376 Zr24    18.0333   9.1293  15.3763   Zr        1 RES1   0.0000
   377 O2       5.1899  19.4667   0.1427   O.2       1 RES1   0.0000
   378 O4       3.7275  19.4667   8.7747   O.2       1 RES1   0.0000
   379 O6       0.1427   5.1899  19.4667   O.2       1 RES1   0.0000
   380 O8       8.7747   3.7275  19.4667   O.2       1 RES1   0.0000
   381 O10     19.4667   0.1427   5.1899   O.2       1 RES1   0.0000
   382 O12     19.4667   8.7747   3.7275   O.2       1 RES1   0.0000
   383 O14     12.6449  -1.6319  17.6921   O.2       1 RES1   0.0000
   384 O16     14.1073  -1.6319   9.0601   O.2       1 RES1   0.0000
   385 O18     17.6921  12.6449  -1.6319   O.2       1 RES1   0.0000
   386 O20      9.0601  14.1073  -1.6319   O.2       1 RES1   0.0000
   387 O22     -1.6319  17.6921  12.6449   O.2       1 RES1   0.0000
   388 O24     -1.6319   9.0601  14.1073   O.2       1 RES1   0.0000
   389 O50      5.5359  17.7046   2.2525   O.2       1 RES1   0.0000
   390 O52      3.3815  17.7046   6.6649   O.2       1 RES1   0.0000
   391 O54      2.2525   5.5359  17.7046   O.2       1 RES1   0.0000
   392 O56      6.6649   3.3815  17.7046   O.2       1 RES1   0.0000
   393 O58     17.7046   2.2525   5.5359   O.2       1 RES1   0.0000
   394 O60     17.7046   6.6649   3.3815   O.2       1 RES1   0.0000
   395 O62     12.2989   0.1302  15.5823   O.2       1 RES1   0.0000
   396 O64     14.4533   0.1302  11.1699   O.2       1 RES1   0.0000
   397 O66     15.5823  12.2989   0.1302   O.2       1 RES1   0.0000
   398 O68     11.1699  14.4533   0.1302   O.2       1 RES1   0.0000
   399 O70      0.1302  15.5823  12.2989   O.2       1 RES1   0.0000
   400 O72      0.1302  11.1699  14.4533   O.2       1 RES1   0.0000
   401 O73      3.7239   9.3437  -1.6158   O.2       1 RES1   0.0000
   402 O74      5.1935  17.4085  -1.6158   O.2       1 RES1   0.0000
   403 O77     -1.6158   3.7239   9.3437   O.2       1 RES1   0.0000
   404 O78     -1.6158   5.1935  17.4085   O.2       1 RES1   0.0000
   405 O81      9.3437  -1.6158   3.7239   O.2       1 RES1   0.0000
   406 O82     17.4085  -1.6158   5.1935   O.2       1 RES1   0.0000
   407 O85     14.1109   8.4911  19.4506   O.2       1 RES1   0.0000
   408 O86     12.6413   0.4263  19.4506   O.2       1 RES1   0.0000
   409 O89     19.4506  14.1109   8.4911   O.2       1 RES1   0.0000
   410 O90     19.4506  12.6413   0.4263   O.2       1 RES1   0.0000
   411 O93      8.4911  19.4506  14.1109   O.2       1 RES1   0.0000
   412 O94      0.4263  19.4506  12.6413   O.2       1 RES1   0.0000
   413 O97      1.3644  10.5529  -1.1539   O.2       1 RES1   0.0000
   414 O97     19.1992  10.5529  -1.1539   O.2       1 RES1   0.0000
   415 O98      7.5530  16.1993  -1.1539   O.2       1 RES1   0.0000
   416 O100    19.1992  16.1993  10.0713   O.2       1 RES1   0.0000
   417 O101    -1.1539   1.3644  10.5529   O.2       1 RES1   0.0000
   418 O101    -1.1539  19.1992  10.5529   O.2       1 RES1   0.0000
   419 O102    -1.1539   7.5530  16.1993   O.2       1 RES1   0.0000
   420 O104    10.0713  19.1992  16.1993   O.2       1 RES1   0.0000
   421 O105    10.5529  -1.1539   1.3644   O.2       1 RES1   0.0000
   422 O105    10.5529  -1.1539  19.1992   O.2       1 RES1   0.0000
   423 O106    16.1993  -1.1539   7.5530   O.2       1 RES1   0.0000
   424 O108    16.1993  10.0713  19.1992   O.2       1 RES1   0.0000
   425 O109    -1.3644   7.2819  18.9887   O.2       1 RES1   0.0000
   426 O109    16.4704   7.2819  18.9887   O.2       1 RES1   0.0000
   427 O110    10.2818   1.6355  18.9887   O.2       1 RES1   0.0000
   428 O112    -1.3644   1.6355   7.7635   O.2       1 RES1   0.0000
   429 O113    18.9887  -1.3644   7.2819   O.2       1 RES1   0.0000
   430 O113    18.9887  16.4704   7.2819   O.2       1 RES1   0.0000
   431 O114    18.9887  10.2818   1.6355   O.2       1 RES1   0.0000
   432 O116     7.7635  -1.3644   1.6355   O.2       1 RES1   0.0000
   433 O117     7.2819  18.9887  -1.3644   O.2       1 RES1   0.0000
   434 O117     7.2819  18.9887  16.4704   O.2       1 RES1   0.0000
   435 O118     1.6355  18.9887  10.2818   O.2       1 RES1   0.0000
   436 O120     1.6355   7.7635  -1.3644   O.2       1 RES1   0.0000
   437 O121     1.0630   7.8544  18.8978   O.2       1 RES1   0.0000
   438 O121    18.8978   7.8544   1.0630   O.2       1 RES1   0.0000
   439 O122     7.8544   1.0630  18.8978   O.2       1 RES1   0.0000
   440 O122     7.8544  18.8978   1.0630   O.2       1 RES1   0.0000
   441 O124     1.0630  18.8978   7.8544   O.2       1 RES1   0.0000
   442 O124    18.8978   1.0630   7.8544   O.2       1 RES1   0.0000
   443 O125    -1.0630   9.9804  16.7718   O.2       1 RES1   0.0000
   444 O125    16.7718   9.9804  -1.0630   O.2       1 RES1   0.0000
   445 O126     9.9804  -1.0630  16.7718   O.2       1 RES1   0.0000
   446 O126     9.9804  16.7718  -1.0630   O.2       1 RES1   0.0000
   447 O128    -1.0630  16.7718   9.9804   O.2       1 RES1   0.0000
   448 O128    16.7718  -1.0630   9.9804   O.2       1 RES1   0.0000
   449 O129     1.0630  10.1409  -0.8846   O.2       1 RES1   0.0000
   450 O129    18.8978  10.1409  -0.8846   O.2       1 RES1   0.0000
   451 O130     7.8544  16.6113  -0.8846   O.2       1 RES1   0.0000
   452 O132    18.8978  16.6113   9.8020   O.2       1 RES1   0.0000
   453 O133    -0.8846   1.0630  10.1409   O.2       1 RES1   0.0000
   454 O133    -0.8846  18.8978  10.1409   O.2       1 RES1   0.0000
   455 O134    -0.8846   7.8544  16.6113   O.2       1 RES1   0.0000
   456 O136     9.8020  18.8978  16.6113   O.2       1 RES1   0.0000
   457 O137    10.1409  -0.8846   1.0630   O.2       1 RES1   0.0000
   458 O137    10.1409  -0.8846  18.8978   O.2       1 RES1   0.0000
   459 O138    16.6113  -0.8846   7.8544   O.2       1 RES1   0.0000
   460 O140    16.6113   9.8020  18.8978   O.2       1 RES1   0.0000
   461 O141    -1.0630   7.6939  18.7194   O.2       1 RES1   0.0000
   462 O141    16.7718   7.6939  18.7194   O.2       1 RES1   0.0000
   463 O142     9.9804   1.2235  18.7194   O.2       1 RES1   0.0000
   464 O144    -1.0630   1.2235   8.0328   O.2       1 RES1   0.0000
   465 O145    18.7194  -1.0630   7.6939   O.2       1 RES1   0.0000
   466 O145    18.7194  16.7718   7.6939   O.2       1 RES1   0.0000
   467 O146    18.7194   9.9804   1.2235   O.2       1 RES1   0.0000
   468 O148     8.0328  -1.0630   1.2235   O.2       1 RES1   0.0000
   469 O149     7.6939  18.7194  -1.0630   O.2       1 RES1   0.0000
   470 O149     7.6939  18.7194  16.7718   O.2       1 RES1   0.0000
   471 O150     1.2235  18.7194   9.9804   O.2       1 RES1   0.0000
   472 O152     1.2235   8.0328  -1.0630   O.2       1 RES1   0.0000
   473 O153     1.4000   7.5174  19.2348   O.2       1 RES1   0.0000
   474 O153    19.2348   7.5174   1.4000   O.2       1 RES1   0.0000
   475 O154     7.5174   1.4000  19.2348   O.2       1 RES1   0.0000
   476 O154     7.5174  19.2348   1.4000   O.2       1 RES1   0.0000
   477 O156     1.4000  19.2348   7.5174   O.2       1 RES1   0.0000
   478 O156    19.2348   1.4000   7.5174   O.2       1 RES1   0.0000
   479 O157    -1.4000  10.3174  16.4348   O.2       1 RES1   0.0000
   480 O157    16.4348  10.3174  -1.4000   O.2       1 RES1   0.0000
   481 O158    10.3174  -1.4000  16.4348   O.2       1 RES1   0.0000
   482 O158    10.3174  16.4348  -1.4000   O.2       1 RES1   0.0000
   483 O160    -1.4000  16.4348  10.3174   O.2       1 RES1   0.0000
   484 O160    16.4348  -1.4000  10.3174   O.2       1 RES1   0.0000
@<TRIPOS>BOND
     1     1    25   un
     2     1    49   un
     3     1    73   un
     4     1   282    1
     5     1   289    1
     6     1   314    1
     7     1   321    1
     8     1   339   un
     9     1   350   un
    10     1   363   un
    11     1   374   un
    12     1   401   un
    13     1   413   un
    14     1   436   un
    15     1   449   un
    16     1   472   un
    17     2    20   un
    18     2    50   un
    19     2   284    1
    20     2   316    1
    21     2   343   un
    22     2   346   un
    23     2   370   un
    24     2   377   un
    25     2   389   un
    26     2   402   un
    27     2   415   un
    28     2   433   un
    29     2   440   un
    30     2   451   un
    31     2   469   un
    32     2   476   un
    33     3     7   un
    34     3    11   un
    35     3    19   un
    36     3    23   un
    37     3    27   un
    38     3    51   un
    39     3    75   un
    40     3    99   un
    41     3   267    1
    42     3   283    1
    43     3   287    1
    44     3   291    1
    45     3   299    1
    46     3   315    1
    47     3   319    1
    48     3   323    1
    49     4    22   un
    50     4    52   un
    51     4   100   un
    52     4   268    1
    53     4   281    1
    54     4   300    1
    55     4   313    1
    56     4   337   un
    57     4   348   un
    58     4   361   un
    59     4   378   un
    60     4   390   un
    61     4   435   un
    62     4   441   un
    63     4   471   un
    64     4   477   un
    65     5    29   un
    66     5    53   un
    67     5    77   un
    68     5   286    1
    69     5   292    1
    70     5   318    1
    71     5   324    1
    72     5   334   un
    73     5   347   un
    74     5   358   un
    75     5   371   un
    76     5   403   un
    77     5   417   un
    78     5   428   un
    79     5   453   un
    80     5   464   un
    81     6    24   un
    82     6    54   un
    83     6   288    1
    84     6   320    1
    85     6   329   un
    86     6   351   un
    87     6   353   un
    88     6   379   un
    89     6   391   un
    90     6   404   un
    91     6   419   un
    92     6   425   un
    93     6   437   un
    94     6   455   un
    95     6   461   un
    96     6   473   un
    97     7    11   un
    98     7    15   un
    99     7    23   un
   100     7    31   un
   101     7    55   un
   102     7    79   un
   103     7   103   un
   104     7   271    1
   105     7   279    1
   106     7   287    1
   107     7   291    1
   108     7   303    1
   109     7   311    1
   110     7   319    1
   111     7   323    1
   112     8    14   un
   113     8    56   un
   114     8   104   un
   115     8   272    1
   116     8   285    1
   117     8   304    1
   118     8   317    1
   119     8   332   un
   120     8   345   un
   121     8   369   un
   122     8   380   un
   123     8   392   un
   124     8   427   un
   125     8   439   un
   126     8   463   un
   127     8   475   un
   128     9    33   un
   129     9    57   un
   130     9    81   un
   131     9   278    1
   132     9   290    1
   133     9   310    1
   134     9   322    1
   135     9   331   un
   136     9   342   un
   137     9   355   un
   138     9   366   un
   139     9   405   un
   140     9   421   un
   141     9   432   un
   142     9   457   un
   143     9   468   un
   144    10    16   un
   145    10    58   un
   146    10   280    1
   147    10   312    1
   148    10   335   un
   149    10   338   un
   150    10   362   un
   151    10   381   un
   152    10   393   un
   153    10   406   un
   154    10   423   un
   155    10   429   un
   156    10   442   un
   157    10   459   un
   158    10   465   un
   159    10   478   un
   160    11    15   un
   161    11    19   un
   162    11    35   un
   163    11    59   un
   164    11    83   un
   165    11   107   un
   166    11   275    1
   167    11   279    1
   168    11   283    1
   169    11   291    1
   170    11   307    1
   171    11   311    1
   172    11   315    1
   173    11   323    1
   174    12    18   un
   175    12    60   un
   176    12   108   un
   177    12   276    1
   178    12   277    1
   179    12   308    1
   180    12   309    1
   181    12   330   un
   182    12   340   un
   183    12   354   un
   184    12   382   un
   185    12   394   un
   186    12   431   un
   187    12   438   un
   188    12   467   un
   189    12   474   un
   190    13    37   un
   191    13    61   un
   192    13    85   un
   193    13   270    1
   194    13   293    1
   195    13   302    1
   196    13   325    1
   197    13   341   un
   198    13   352   un
   199    13   365   un
   200    13   376   un
   201    13   407   un
   202    13   424   un
   203    13   426   un
   204    13   460   un
   205    13   462   un
   206    14    62   un
   207    14   272    1
   208    14   304    1
   209    14   345   un
   210    14   367   un
   211    14   369   un
   212    14   383   un
   213    14   395   un
   214    14   408   un
   215    14   422   un
   216    14   427   un
   217    14   445   un
   218    14   458   un
   219    14   463   un
   220    14   481   un
   221    15    19   un
   222    15    23   un
   223    15    39   un
   224    15    63   un
   225    15    87   un
   226    15   111   un
   227    15   271    1
   228    15   275    1
   229    15   279    1
   230    15   295    1
   231    15   303    1
   232    15   307    1
   233    15   311    1
   234    15   327    1
   235    16    64   un
   236    16   112   un
   237    16   269    1
   238    16   280    1
   239    16   301    1
   240    16   312    1
   241    16   338   un
   242    16   362   un
   243    16   372   un
   244    16   384   un
   245    16   396   un
   246    16   423   un
   247    16   448   un
   248    16   459   un
   249    16   484   un
   250    17    41   un
   251    17    65   un
   252    17    89   un
   253    17   274    1
   254    17   296    1
   255    17   306    1
   256    17   328    1
   257    17   336   un
   258    17   349   un
   259    17   360   un
   260    17   373   un
   261    17   409   un
   262    17   416   un
   263    17   430   un
   264    17   452   un
   265    17   466   un
   266    18    66   un
   267    18   276    1
   268    18   308    1
   269    18   330   un
   270    18   354   un
   271    18   375   un
   272    18   385   un
   273    18   397   un
   274    18   410   un
   275    18   414   un
   276    18   431   un
   277    18   444   un
   278    18   450   un
   279    18   467   un
   280    18   480   un
   281    19    23   un
   282    19    43   un
   283    19    67   un
   284    19    91   un
   285    19   115   un
   286    19   267    1
   287    19   275    1
   288    19   283    1
   289    19   295    1
   290    19   299    1
   291    19   307    1
   292    19   315    1
   293    19   327    1
   294    20    68   un
   295    20   116   un
   296    20   273    1
   297    20   284    1
   298    20   305    1
   299    20   316    1
   300    20   346   un
   301    20   356   un
   302    20   370   un
   303    20   386   un
   304    20   398   un
   305    20   415   un
   306    20   446   un
   307    20   451   un
   308    20   482   un
   309    21    45   un
   310    21    69   un
   311    21    93   un
   312    21   266    1
   313    21   294    1
   314    21   298    1
   315    21   326    1
   316    21   333   un
   317    21   344   un
   318    21   357   un
   319    21   368   un
   320    21   411   un
   321    21   420   un
   322    21   434   un
   323    21   456   un
   324    21   470   un
   325    22    70   un
   326    22   268    1
   327    22   300    1
   328    22   337   un
   329    22   359   un
   330    22   361   un
   331    22   387   un
   332    22   399   un
   333    22   412   un
   334    22   418   un
   335    22   435   un
   336    22   447   un
   337    22   454   un
   338    22   471   un
   339    22   483   un
   340    23    47   un
   341    23    71   un
   342    23    95   un
   343    23   119   un
   344    23   267    1
   345    23   271    1
   346    23   287    1
   347    23   295    1
   348    23   299    1
   349    23   303    1
   350    23   319    1
   351    23   327    1
   352    24    72   un
   353    24   120   un
   354    24   265    1
   355    24   288    1
   356    24   297    1
   357    24   320    1
   358    24   329   un
   359    24   353   un
   360    24   364   un
   361    24   388   un
   362    24   400   un
   363    24   419   un
   364    24   443   un
   365    24   455   un
   366    24   479   un
   367    25   193   un
   368    26   194   un
   369    26   331   un
   370    27   195   un
   371    28   196   un
   372    28   334   un
   373    29   197   un
   374    30   198   un
   375    30   339   un
   376    31   199   un
   377    32   200   un
   378    32   342   un
   379    33   201   un
   380    34   202   un
   381    34   347   un
   382    35   203   un
   383    36   204   un
   384    36   350   un
   385    37   205   un
   386    38   206   un
   387    38   357   un
   388    39   207   un
   389    40   208   un
   390    40   360   un
   391    41   209   un
   392    42   210   un
   393    42   365   un
   394    43   211   un
   395    44   212   un
   396    44   368   un
   397    45   213   un
   398    46   214   un
   399    46   373   un
   400    47   215   un
   401    48   216   un
   402    48   376   un
   403    49   121   un
   404    50   122   un
   405    51   123   un
   406    52   124   un
   407    53   125   un
   408    54   126   un
   409    55   127   un
   410    56   128   un
   411    57   129   un
   412    58   130   un
   413    59   131   un
   414    60   132   un
   415    61   133   un
   416    62   134   un
   417    63   135   un
   418    64   136   un
   419    65   137   un
   420    66   138   un
   421    67   139   un
   422    68   140   un
   423    69   141   un
   424    70   142   un
   425    71   143   un
   426    72   144   un
   427    73   204   un
   428    74   201   un
   429    74   331   un
   430    75   203   un
   431    76   202   un
   432    76   334   un
   433    77   196   un
   434    78   193   un
   435    78   339   un
   436    79   195   un
   437    80   194   un
   438    80   342   un
   439    81   200   un
   440    82   197   un
   441    82   347   un
   442    83   199   un
   443    84   198   un
   444    84   350   un
   445    85   216   un
   446    86   213   un
   447    86   357   un
   448    87   215   un
   449    88   214   un
   450    88   360   un
   451    89   208   un
   452    90   205   un
   453    90   365   un
   454    91   207   un
   455    92   206   un
   456    92   368   un
   457    93   212   un
   458    94   209   un
   459    94   373   un
   460    95   211   un
   461    96   210   un
   462    96   376   un
   463    97   144   un
   464    97   329   un
   465    98   141   un
   466    98   333   un
   467    99   143   un
   468   100   142   un
   469   101   136   un
   470   101   338   un
   471   102   133   un
   472   102   341   un
   473   103   135   un
   474   104   134   un
   475   105   140   un
   476   105   346   un
   477   106   137   un
   478   106   349   un
   479   107   139   un
   480   108   138   un
   481   109   132   un
   482   109   354   un
   483   110   129   un
   484   110   355   un
   485   111   131   un
   486   112   130   un
   487   113   124   un
   488   113   361   un
   489   114   121   un
   490   114   363   un
   491   115   123   un
   492   116   122   un
   493   117   128   un
   494   117   369   un
   495   118   125   un
   496   118   371   un
   497   119   127   un
   498   120   126   un
   499   121   145   un
   500   122   146   un
   501   123   147   un
   502   124   148   un
   503   125   149   un
   504   126   150   un
   505   127   151   un
   506   128   152   un
   507   129   153   un
   508   130   154   un
   509   131   155   un
   510   132   156   un
   511   133   157   un
   512   134   158   un
   513   135   159   un
   514   136   160   un
   515   137   161   un
   516   138   162   un
   517   139   163   un
   518   140   164   un
   519   141   165   un
   520   142   166   un
   521   143   167   un
   522   144   168   un
   523   145   146   un
   524   145   169    1
   525   146   170    1
   526   147   148   un
   527   147   171    1
   528   148   172    1
   529   149   150   un
   530   149   173    1
   531   150   174    1
   532   151   152   un
   533   151   175    1
   534   152   176    1
   535   153   154   un
   536   153   177    1
   537   154   178    1
   538   155   156   un
   539   155   179    1
   540   156   180    1
   541   157   158   un
   542   157   181    1
   543   158   182    1
   544   159   160   un
   545   159   183    1
   546   160   184    1
   547   161   162   un
   548   161   185    1
   549   162   186    1
   550   163   164   un
   551   163   187    1
   552   164   188    1
   553   165   166   un
   554   165   189    1
   555   166   190    1
   556   167   168   un
   557   167   191    1
   558   168   192    1
   559   193   217   un
   560   194   218   un
   561   195   219   un
   562   196   220   un
   563   197   221   un
   564   198   222   un
   565   199   223   un
   566   200   224   un
   567   201   225   un
   568   202   226   un
   569   203   227   un
   570   204   228   un
   571   205   229   un
   572   206   230   un
   573   207   231   un
   574   208   232   un
   575   209   233   un
   576   210   234   un
   577   211   235   un
   578   212   236   un
   579   213   237   un
   580   214   238   un
   581   215   239   un
   582   216   240   un
   583   217   218   un
   584   217   241    1
   585   218   242    1
   586   219   220   un
   587   219   243    1
   588   220   244    1
   589   221   222   un
   590   221   245    1
   591   222   246    1
   592   223   224   un
   593   223   247    1
   594   224   248    1
   595   225   226   un
   596   225   249    1
   597   226   250    1
   598   227   228   un
   599   227   251    1
   600   228   252    1
   601   229   230   un
   602   229   253    1
   603   230   254    1
   604   231   232   un
   605   231   255    1
   606   232   256    1
   607   233   234   un
   608   233   257    1
   609   234   258    1
   610   235   236   un
   611   235   259    1
   612   236   260    1
   613   237   238   un
   614   237   261    1
   615   238   262    1
   616   239   240   un
   617   239   263    1
   618   240   264    1
   619   265   297    1
   620   265   329    1
   621   265   364    1
   622   266   298    1
   623   266   333    1
   624   266   368    1
   625   267   299    1
   626   268   300    1
   627   268   361    1
   628   269   301    1
   629   269   338    1
   630   269   372    1
   631   270   302    1
   632   270   341    1
   633   270   376    1
   634   271   303    1
   635   272   304    1
   636   272   369    1
   637   273   305    1
   638   273   346    1
   639   273   356    1
   640   274   306    1
   641   274   349    1
   642   274   360    1
   643   275   307    1
   644   276   308    1
   645   276   354    1
   646   277   309    1
   647   277   340    1
   648   277   354    1
   649   278   310    1
   650   278   342    1
   651   278   355    1
   652   279   311    1
   653   280   312    1
   654   280   338    1
   655   281   313    1
   656   281   348    1
   657   281   361    1
   658   282   314    1
   659   282   350    1
   660   282   363    1
   661   283   315    1
   662   284   316    1
   663   284   346    1
   664   285   317    1
   665   285   332    1
   666   285   369    1
   667   286   318    1
   668   286   334    1
   669   286   371    1
   670   287   319    1
   671   288   320    1
   672   288   329    1
   673   289   321    1
   674   289   339    1
   675   289   350    1
   676   290   322    1
   677   290   331    1
   678   290   342    1
   679   291   323    1
   680   292   324    1
   681   292   334    1
   682   292   347    1
   683   293   325    1
   684   293   365    1
   685   293   376    1
   686   294   326    1
   687   294   357    1
   688   294   368    1
   689   295   327    1
   690   296   328    1
   691   296   360    1
   692   296   373    1
   693   297   329    1
   694   297   364    1
   695   298   333    1
   696   298   368    1
   697   300   361    1
   698   301   338    1
   699   301   372    1
   700   302   341    1
   701   302   376    1
   702   304   369    1
   703   305   346    1
   704   305   356    1
   705   306   349    1
   706   306   360    1
   707   308   354    1
   708   309   340    1
   709   309   354    1
   710   310   342    1
   711   310   355    1
   712   312   338    1
   713   313   348    1
   714   313   361    1
   715   314   350    1
   716   314   363    1
   717   316   346    1
   718   317   332    1
   719   317   369    1
   720   318   334    1
   721   318   371    1
   722   320   329    1
   723   321   339    1
   724   321   350    1
   725   322   331    1
   726   322   342    1
   727   324   334    1
   728   324   347    1
   729   325   365    1
   730   325   376    1
   731   326   357    1
   732   326   368    1
   733   328   360    1
   734   328   373    1
   735   329   351   un
   736   329   364   un
   737   329   437   un
   738   329   473   un
   739   330   340   un
   740   330   375   un
   741   330   414   un
   742   330   431   un
   743   330   438   un
   744   330   450   un
   745   330   467   un
   746   330   474   un
   747   331   342   un
   748   331   366   un
   749   331   432   un
   750   331   468   un
   751   332   345   un
   752   332   367   un
   753   332   369   un
   754   332   439   un
   755   332   475   un
   756   333   344   un
   757   333   368   un
   758   333   434   un
   759   333   470   un
   760   334   347   un
   761   334   371   un
   762   335   338   un
   763   335   362   un
   764   335   372   un
   765   335   429   un
   766   335   442   un
   767   335   465   un
   768   335   478   un
   769   336   349   un
   770   336   373   un
   771   336   416   un
   772   336   430   un
   773   336   452   un
   774   336   466   un
   775   337   348   un
   776   337   359   un
   777   337   418   un
   778   337   435   un
   779   337   441   un
   780   337   454   un
   781   337   471   un
   782   337   477   un
   783   338   372   un
   784   338   442   un
   785   338   478   un
   786   339   350   un
   787   339   374   un
   788   339   436   un
   789   339   472   un
   790   340   354   un
   791   340   375   un
   792   340   438   un
   793   340   474   un
   794   341   352   un
   795   341   376   un
   796   341   426   un
   797   341   462   un
   798   342   355   un
   799   343   346   un
   800   343   356   un
   801   343   370   un
   802   343   433   un
   803   343   440   un
   804   343   469   un
   805   343   476   un
   806   344   357   un
   807   344   420   un
   808   344   434   un
   809   344   456   un
   810   344   470   un
   811   345   367   un
   812   345   422   un
   813   345   427   un
   814   345   439   un
   815   345   458   un
   816   345   463   un
   817   345   475   un
   818   346   356   un
   819   346   440   un
   820   346   476   un
   821   347   358   un
   822   347   428   un
   823   347   464   un
   824   348   359   un
   825   348   361   un
   826   348   441   un
   827   348   477   un
   828   349   360   un
   829   349   430   un
   830   349   466   un
   831   350   363   un
   832   351   353   un
   833   351   364   un
   834   351   425   un
   835   351   437   un
   836   351   461   un
   837   351   473   un
   838   352   365   un
   839   352   424   un
   840   352   426   un
   841   352   460   un
   842   352   462   un
   843   353   364   un
   844   353   419   un
   845   353   425   un
   846   353   443   un
   847   353   455   un
   848   353   461   un
   849   353   479   un
   850   354   375   un
   851   354   444   un
   852   354   480   un
   853   355   366   un
   854   355   421   un
   855   355   457   un
   856   356   370   un
   857   356   446   un
   858   356   482   un
   859   357   368   un
   860   357   420   un
   861   357   456   un
   862   358   371   un
   863   358   417   un
   864   358   428   un
   865   358   453   un
   866   358   464   un
   867   359   361   un
   868   359   418   un
   869   359   447   un
   870   359   454   un
   871   359   483   un
   872   360   373   un
   873   361   447   un
   874   361   483   un
   875   362   372   un
   876   362   423   un
   877   362   429   un
   878   362   448   un
   879   362   459   un
   880   362   465   un
   881   362   484   un
   882   363   374   un
   883   363   413   un
   884   363   449   un
   885   364   443   un
   886   364   479   un
   887   365   376   un
   888   365   424   un
   889   365   460   un
   890   366   421   un
   891   366   432   un
   892   366   457   un
   893   366   468   un
   894   367   369   un
   895   367   422   un
   896   367   445   un
   897   367   458   un
   898   367   481   un
   899   369   445   un
   900   369   481   un
   901   370   415   un
   902   370   433   un
   903   370   446   un
   904   370   451   un
   905   370   469   un
   906   370   482   un
   907   371   417   un
   908   371   453   un
   909   372   448   un
   910   372   484   un
   911   373   416   un
   912   373   452   un
   913   374   413   un
   914   374   436   un
   915   374   449   un
   916   374   472   un
   917   375   414   un
   918   375   444   un
   919   375   450   un
   920   375   480   un
   921   413   449   un
   922   414   450   un
   923   415   451   un
   924   416   452   un
   925   417   453   un
   926   418   454   un
   927   419   455   un
   928   420   456   un
   929   421   457   un
   930   422   458   un
   931   423   459   un
   932   424   460   un
   933   425   461   un
   934   426   462   un
   935   427   463   un
   936   428   464   un
   937   429   465   un
   938   430   466   un
   939   431   467   un
   940   432   468   un
   941   433   469   un
   942   434   470   un
   943   435   471   un
   944   436   472   un
   945   437   473   un
   946   438   474   un
   947   439   475   un
   948   440   476   un
   949   441   477   un
   950   442   478   un
   951   443   479   un
   952   444   480   un
   953   445   481   un
   954   446   482   un
   955   447   483   un
   956   448   484   un
@<TRIPOS>SUBSTRUCTURE
     1 RES1        1 GROUP             0 ****  ****    0  
@<TRIPOS>CRYSIN
   17.8348   17.8348   17.8348   90.0000   90.0000   90.0000     1     1
