@<TRIPOS>MOLECULE
MOL
  2956  4368     0
SMALL
NO_CHARGES
****
ITC 2023. ALL RIGHTS RESERVED.

@<TRIPOS>ATOM
    13 Zr       7.3363   0.6789   9.5829   Z         1 RES1   0.0000
    15 Zr       3.3359   0.6789   1.0893   Z         1 RES1   0.0000
    17 Zr       9.5829   7.3363   0.6789   Z         1 RES1   0.0000
    19 Zr       1.0893   3.3359   0.6789   Z         1 RES1   0.0000
    21 Zr       0.6789   9.5829   7.3363   Z         1 RES1   0.0000
    23 Zr       0.6789   1.0893   3.3359   Z         1 RES1   0.0000
    37 O1       6.0673   2.5093   9.6521   O         1 RES1   0.0000
    38 O1       4.6049   8.1629   9.6521   O         1 RES1   0.0000
    39 O1       4.6049   2.5093   1.0201   O         1 RES1   0.0000
    40 O1       6.0673   8.1629   1.0201   O         1 RES1   0.0000
    41 O1       9.6521   6.0673   2.5093   O         1 RES1   0.0000
    42 O1       9.6521   4.6049   8.1629   O         1 RES1   0.0000
    43 O1       1.0201   4.6049   2.5093   O         1 RES1   0.0000
    44 O1       1.0201   6.0673   8.1629   O         1 RES1   0.0000
    45 O1       2.5093   9.6521   6.0673   O         1 RES1   0.0000
    46 O1       8.1629   9.6521   4.6049   O         1 RES1   0.0000
    47 O1       2.5093   1.0201   4.6049   O         1 RES1   0.0000
    48 O1       8.1629   1.0201   6.0673   O         1 RES1   0.0000
    85 O1       6.4133   0.7472   7.5423   O         1 RES1   0.0000
    86 O1       4.2589   9.9250   7.5423   O         1 RES1   0.0000
    87 O1       4.2589   0.7472   3.1299   O         1 RES1   0.0000
    88 O1       6.4133   9.9250   3.1299   O         1 RES1   0.0000
    89 O1       7.5423   6.4133   0.7472   O         1 RES1   0.0000
    90 O1       7.5423   4.2589   9.9250   O         1 RES1   0.0000
    91 O1       3.1299   4.2589   0.7472   O         1 RES1   0.0000
    92 O1       3.1299   6.4133   9.9250   O         1 RES1   0.0000
    93 O1       0.7472   7.5423   6.4133   O         1 RES1   0.0000
    94 O1       9.9250   7.5423   4.2589   O         1 RES1   0.0000
    95 O1       0.7472   3.1299   4.2589   O         1 RES1   0.0000
    96 O1       9.9250   3.1299   6.4133   O         1 RES1   0.0000
   205 C1       6.3955   3.7345   9.7948   C         1 RES1   0.0000
   206 C1       4.2767   6.9377   9.7948   C         1 RES1   0.0000
   207 C1       4.2767   3.7345   0.8774   C         1 RES1   0.0000
   208 C1       6.3955   6.9377   0.8774   C         1 RES1   0.0000
   209 C1       9.7948   6.3955   3.7345   C         1 RES1   0.0000
   210 C1       9.7948   4.2767   6.9377   C         1 RES1   0.0000
   211 C1       0.8774   4.2767   3.7345   C         1 RES1   0.0000
   212 C1       0.8774   6.3955   6.9377   C         1 RES1   0.0000
   213 C1       3.7345   9.7948   6.3955   C         1 RES1   0.0000
   214 C1       6.9377   9.7948   4.2767   C         1 RES1   0.0000
   215 C1       3.7345   0.8774   4.2767   C         1 RES1   0.0000
   216 C1       6.9377   0.8774   6.3955   C         1 RES1   0.0000
   229 C2       5.2166   4.6851   9.7930   C         1 RES1   0.0000
   230 C2       5.4556   5.9871   9.7930   C         1 RES1   0.0000
   231 C2       5.4556   4.6851   0.8792   C         1 RES1   0.0000
   232 C2       5.2166   5.9871   0.8792   C         1 RES1   0.0000
   233 C2       9.7930   5.2166   4.6851   C         1 RES1   0.0000
   234 C2       9.7930   5.4556   5.9871   C         1 RES1   0.0000
   235 C2       0.8792   5.4556   4.6851   C         1 RES1   0.0000
   236 C2       0.8792   5.2166   5.9871   C         1 RES1   0.0000
   237 C2       4.6851   9.7930   5.2166   C         1 RES1   0.0000
   238 C2       5.9871   9.7930   5.4556   C         1 RES1   0.0000
   239 C2       4.6851   0.8792   5.4556   C         1 RES1   0.0000
   240 C2       5.9871   0.8792   5.2166   C         1 RES1   0.0000
   253 H        4.3445   4.3623   9.7930   H         1 RES1   0.0000
   254 H        6.3277   6.3099   9.7930   H         1 RES1   0.0000
   255 H        6.3277   4.3623   0.8792   H         1 RES1   0.0000
   256 H        4.3445   6.3099   0.8792   H         1 RES1   0.0000
   257 H        9.7930   4.3445   4.3623   H         1 RES1   0.0000
   258 H        9.7930   6.3277   6.3099   H         1 RES1   0.0000
   259 H        0.8792   6.3277   4.3623   H         1 RES1   0.0000
   260 H        0.8792   4.3445   6.3099   H         1 RES1   0.0000
   261 H        4.3623   9.7930   4.3445   H         1 RES1   0.0000
   262 H        6.3099   9.7930   6.3277   H         1 RES1   0.0000
   263 H        4.3623   0.8792   6.3277   H         1 RES1   0.0000
   264 H        6.3099   0.8792   4.3445   H         1 RES1   0.0000
   325 O2       8.3948   2.2774   8.3948   O         1 RES1   0.0000
   326 O2       2.2774   8.3948   8.3948   O         1 RES1   0.0000
   327 O2       2.2774   2.2774   2.2774   O         1 RES1   0.0000
   328 O2       8.3948   8.3948   2.2774   O         1 RES1   0.0000
   336 Zr      12.2533   9.5963   0.6655   Z         1 RES1   0.0000
   344 Zr       0.6655  12.2533   9.5963   Z         1 RES1   0.0000
   352 Zr       9.5963   0.6655  12.2533   Z         1 RES1   0.0000
   357 Zr       3.3359   9.9933   9.5829   Z         1 RES1   0.0000
   360 Zr       7.3363   9.9933   1.0893   Z         1 RES1   0.0000
   365 Zr       9.5829   3.3359   9.9933   Z         1 RES1   0.0000
   368 Zr       1.0893   7.3363   9.9933   Z         1 RES1   0.0000
   373 Zr       9.9933   9.5829   3.3359   Z         1 RES1   0.0000
   376 Zr       9.9933   1.0893   7.3363   Z         1 RES1   0.0000
   407 O1       6.0709   0.4511  11.4106   O         1 RES1   0.0000
   409 O1      11.4106   6.0709   0.4511   O         1 RES1   0.0000
   411 O1       0.4511  11.4106   6.0709   O         1 RES1   0.0000
   416 O2      11.1592   8.1593   2.0313   O         1 RES1   0.0000
   420 O2       2.0313  11.1592   8.1593   O         1 RES1   0.0000
   424 O2       8.1593   2.0313  11.1592   O         1 RES1   0.0000
   492 Zr       1.0759   0.6655  16.2537   Z         1 RES1   0.0000
   493 Zr       7.3363   0.6789  27.4177   Z         1 RES1   0.0000
   495 Zr       3.3359   0.6789  18.9241   Z         1 RES1   0.0000
   497 Zr       9.5829   7.3363  18.5137   Z         1 RES1   0.0000
   498 Zr       1.0893   3.3359  18.5137   Z         1 RES1   0.0000
   499 Zr       0.6789   9.5829  25.1711   Z         1 RES1   0.0000
   501 Zr       0.6789   1.0893  21.1707   Z         1 RES1   0.0000
   513 O1       6.0673   2.5093  27.4869   O         1 RES1   0.0000
   514 O1       4.6049   8.1629  27.4869   O         1 RES1   0.0000
   515 O1       4.6049   2.5093  18.8549   O         1 RES1   0.0000
   516 O1       6.0673   8.1629  18.8549   O         1 RES1   0.0000
   517 O1       9.6521   6.0673  20.3441   O         1 RES1   0.0000
   518 O1       9.6521   4.6049  25.9977   O         1 RES1   0.0000
   519 O1       1.0201   4.6049  20.3441   O         1 RES1   0.0000
   520 O1       1.0201   6.0673  25.9977   O         1 RES1   0.0000
   521 O1       2.5093   9.6521  23.9021   O         1 RES1   0.0000
   522 O1       8.1629   9.6521  22.4397   O         1 RES1   0.0000
   523 O1       2.5093   1.0201  22.4397   O         1 RES1   0.0000
   524 O1       8.1629   1.0201  23.9021   O         1 RES1   0.0000
   535 O1       3.0996   0.4387  15.3165   O         1 RES1   0.0000
   536 O1       7.5726   0.4387  13.1905   O         1 RES1   0.0000
   541 O1       9.3561   6.3991  16.4900   O         1 RES1   0.0000
   542 O1       9.3561   4.2731  12.0170   O         1 RES1   0.0000
   543 O1       1.3161   4.2731  16.4900   O         1 RES1   0.0000
   544 O1       1.3161   6.3991  12.0170   O         1 RES1   0.0000
   559 O1       6.4133   0.7472  25.3771   O         1 RES1   0.0000
   560 O1       4.2589   9.9250  25.3771   O         1 RES1   0.0000
   561 O1       4.2589   0.7472  20.9647   O         1 RES1   0.0000
   562 O1       6.4133   9.9250  20.9647   O         1 RES1   0.0000
   563 O1       7.5423   6.4133  18.5820   O         1 RES1   0.0000
   564 O1       7.5423   4.2589  27.7598   O         1 RES1   0.0000
   565 O1       3.1299   4.2589  18.5820   O         1 RES1   0.0000
   566 O1       3.1299   6.4133  27.7598   O         1 RES1   0.0000
   567 O1       0.7472   7.5423  24.2481   O         1 RES1   0.0000
   568 O1       9.9250   7.5423  22.0937   O         1 RES1   0.0000
   569 O1       0.7472   3.1299  22.0937   O         1 RES1   0.0000
   570 O1       9.9250   3.1299  24.2481   O         1 RES1   0.0000
   579 O1       1.3037   8.1790  13.5187   O         1 RES1   0.0000
   580 O1       9.3685   8.1790  14.9883   O         1 RES1   0.0000
   581 O1       1.3037   2.4932  14.9883   O         1 RES1   0.0000
   582 O1       9.3685   2.4932  13.5187   O         1 RES1   0.0000
   583 O1       4.6013   0.4511  17.0964   O         1 RES1   0.0000
   603 C1       4.2500   0.4494  15.8515   C         1 RES1   0.0000
   604 C1       6.4222   0.4494  12.6555   C         1 RES1   0.0000
   609 C1       9.3668   6.9341  15.3396   C         1 RES1   0.0000
   610 C1       9.3668   3.7381  13.1674   C         1 RES1   0.0000
   611 C1       1.3054   3.7381  15.3396   C         1 RES1   0.0000
   612 C1       1.3054   6.9341  13.1674   C         1 RES1   0.0000
   627 C2       5.4342   0.4440  14.8920   C         1 RES1   0.0000
   628 C2       5.2380   0.4440  13.6150   C         1 RES1   0.0000
   633 C2       9.3614   5.9746  14.1554   C         1 RES1   0.0000
   634 C2       9.3614   4.6976  14.3516   C         1 RES1   0.0000
   635 C2       1.3108   4.6976  14.1554   C         1 RES1   0.0000
   636 C2       1.3108   5.9746  14.3516   C         1 RES1   0.0000
   651 H        6.3027   0.4422  15.2255   H         1 RES1   0.0000
   652 H        4.3695   0.4422  13.2815   H         1 RES1   0.0000
   657 H        9.3596   6.3081  13.2869   H         1 RES1   0.0000
   658 H        9.3596   4.3641  15.2201   H         1 RES1   0.0000
   659 H        1.3126   4.3641  13.2869   H         1 RES1   0.0000
   660 H        1.3126   6.3081  15.2201   H         1 RES1   0.0000
   677 C1       6.3955   3.7345  27.6296   C         1 RES1   0.0000
   678 C1       4.2767   6.9377  27.6296   C         1 RES1   0.0000
   679 C1       4.2767   3.7345  18.7122   C         1 RES1   0.0000
   680 C1       6.3955   6.9377  18.7122   C         1 RES1   0.0000
   681 C1       9.7948   6.3955  21.5693   C         1 RES1   0.0000
   682 C1       9.7948   4.2767  24.7725   C         1 RES1   0.0000
   683 C1       0.8774   4.2767  21.5693   C         1 RES1   0.0000
   684 C1       0.8774   6.3955  24.7725   C         1 RES1   0.0000
   685 C1       3.7345   9.7948  24.2303   C         1 RES1   0.0000
   686 C1       6.9377   9.7948  22.1115   C         1 RES1   0.0000
   687 C1       3.7345   0.8774  22.1115   C         1 RES1   0.0000
   688 C1       6.9377   0.8774  24.2303   C         1 RES1   0.0000
   701 C2       5.2166   4.6851  27.6278   C         1 RES1   0.0000
   702 C2       5.4556   5.9871  27.6278   C         1 RES1   0.0000
   703 C2       5.4556   4.6851  18.7140   C         1 RES1   0.0000
   704 C2       5.2166   5.9871  18.7140   C         1 RES1   0.0000
   705 C2       9.7930   5.2166  22.5199   C         1 RES1   0.0000
   706 C2       9.7930   5.4556  23.8219   C         1 RES1   0.0000
   707 C2       0.8792   5.4556  22.5199   C         1 RES1   0.0000
   708 C2       0.8792   5.2166  23.8219   C         1 RES1   0.0000
   709 C2       4.6851   9.7930  23.0514   C         1 RES1   0.0000
   710 C2       5.9871   9.7930  23.2904   C         1 RES1   0.0000
   711 C2       4.6851   0.8792  23.2904   C         1 RES1   0.0000
   712 C2       5.9871   0.8792  23.0514   C         1 RES1   0.0000
   725 H        4.3445   4.3623  27.6278   H         1 RES1   0.0000
   726 H        6.3277   6.3099  27.6278   H         1 RES1   0.0000
   727 H        6.3277   4.3623  18.7140   H         1 RES1   0.0000
   728 H        4.3445   6.3099  18.7140   H         1 RES1   0.0000
   729 H        9.7930   4.3445  22.1971   H         1 RES1   0.0000
   730 H        9.7930   6.3277  24.1447   H         1 RES1   0.0000
   731 H        0.8792   6.3277  22.1971   H         1 RES1   0.0000
   732 H        0.8792   4.3445  24.1447   H         1 RES1   0.0000
   733 H        4.3623   9.7930  22.1793   H         1 RES1   0.0000
   734 H        6.3099   9.7930  24.1625   H         1 RES1   0.0000
   735 H        4.3623   0.8792  24.1625   H         1 RES1   0.0000
   736 H        6.3099   0.8792  22.1793   H         1 RES1   0.0000
   745 O2       2.5129   8.6409  11.1592   O         1 RES1   0.0000
   746 O2       8.1593   8.6409  17.3478   O         1 RES1   0.0000
   747 O2       2.5129   2.0313  17.3478   O         1 RES1   0.0000
   787 O2       8.3948   2.2774  26.2296   O         1 RES1   0.0000
   788 O2       2.2774   8.3948  26.2296   O         1 RES1   0.0000
   789 O2       2.2774   2.2774  20.1122   O         1 RES1   0.0000
   790 O2       8.3948   8.3948  20.1122   O         1 RES1   0.0000
   792 Zr      12.2533   1.0759  10.0067   Z         1 RES1   0.0000
   797 Zr      12.2533   9.5963  18.5003   Z         1 RES1   0.0000
   801 Zr       0.6655  12.2533  27.4311   Z         1 RES1   0.0000
   803 Zr       1.0759  10.0067  12.2533   Z         1 RES1   0.0000
   806 Zr       9.5963  10.0067  16.2537   Z         1 RES1   0.0000
   808 Zr       9.5963   0.6655  30.0881   Z         1 RES1   0.0000
   810 Zr       3.3359   9.9933  27.4177   Z         1 RES1   0.0000
   813 Zr       7.3363   9.9933  18.9241   Z         1 RES1   0.0000
   817 Zr       9.5829   3.3359  27.8281   Z         1 RES1   0.0000
   819 Zr       1.0893   7.3363  27.8281   Z         1 RES1   0.0000
   823 Zr       9.9933   9.5829  21.1707   Z         1 RES1   0.0000
   824 Zr       9.9933   1.0893  25.1711   Z         1 RES1   0.0000
   830 O1      11.4267   0.7347  13.5223   O         1 RES1   0.0000
   849 O1       6.0709   0.4511  29.2454   O         1 RES1   0.0000
   851 O1      11.4106   6.0709  18.2859   O         1 RES1   0.0000
   852 O1      11.4106   4.6013  10.2211   O         1 RES1   0.0000
   853 O1       0.4511  11.4106  23.9057   O         1 RES1   0.0000
   855 O2      11.1592   2.5129   8.6409   O         1 RES1   0.0000
   856 O2      11.1592   8.1593  19.8661   O         1 RES1   0.0000
   860 O2       2.0313  11.1592  25.9941   O         1 RES1   0.0000
   863 O2       8.1593   2.0313  28.9940   O         1 RES1   0.0000
   869 O2      10.9487   8.4304  17.0767   O         1 RES1   0.0000
   870 O2      10.9487   2.2418  11.4303   O         1 RES1   0.0000
   920 Zr       1.0759   0.6655  34.0885   Z         1 RES1   0.0000
   923 Zr       3.3359   0.6789  36.7589   Z         1 RES1   0.0000
   925 Zr       9.5829   7.3363  36.3485   Z         1 RES1   0.0000
   926 Zr       1.0893   3.3359  36.3485   Z         1 RES1   0.0000
   943 O1       4.6049   2.5093  36.6897   O         1 RES1   0.0000
   944 O1       6.0673   8.1629  36.6897   O         1 RES1   0.0000
   963 O1       3.0996   0.4387  33.1513   O         1 RES1   0.0000
   964 O1       7.5726   0.4387  31.0253   O         1 RES1   0.0000
   969 O1       9.3561   6.3991  34.3248   O         1 RES1   0.0000
   970 O1       9.3561   4.2731  29.8518   O         1 RES1   0.0000
   971 O1       1.3161   4.2731  34.3248   O         1 RES1   0.0000
   972 O1       1.3161   6.3991  29.8518   O         1 RES1   0.0000
   991 O1       7.5423   6.4133  36.4168   O         1 RES1   0.0000
   993 O1       3.1299   4.2589  36.4168   O         1 RES1   0.0000
  1007 O1       1.3037   8.1790  31.3535   O         1 RES1   0.0000
  1008 O1       9.3685   8.1790  32.8231   O         1 RES1   0.0000
  1009 O1       1.3037   2.4932  32.8231   O         1 RES1   0.0000
  1010 O1       9.3685   2.4932  31.3535   O         1 RES1   0.0000
  1011 O1       4.6013   0.4511  34.9312   O         1 RES1   0.0000
  1031 C1       4.2500   0.4494  33.6863   C         1 RES1   0.0000
  1032 C1       6.4222   0.4494  30.4903   C         1 RES1   0.0000
  1037 C1       9.3668   6.9341  33.1744   C         1 RES1   0.0000
  1038 C1       9.3668   3.7381  31.0022   C         1 RES1   0.0000
  1039 C1       1.3054   3.7381  33.1744   C         1 RES1   0.0000
  1040 C1       1.3054   6.9341  31.0022   C         1 RES1   0.0000
  1055 C2       5.4342   0.4440  32.7268   C         1 RES1   0.0000
  1056 C2       5.2380   0.4440  31.4498   C         1 RES1   0.0000
  1061 C2       9.3614   5.9746  31.9902   C         1 RES1   0.0000
  1062 C2       9.3614   4.6976  32.1864   C         1 RES1   0.0000
  1063 C2       1.3108   4.6976  31.9902   C         1 RES1   0.0000
  1064 C2       1.3108   5.9746  32.1864   C         1 RES1   0.0000
  1079 H        6.3027   0.4422  33.0603   H         1 RES1   0.0000
  1080 H        4.3695   0.4422  31.1163   H         1 RES1   0.0000
  1085 H        9.3596   6.3081  31.1217   H         1 RES1   0.0000
  1086 H        9.3596   4.3641  33.0549   H         1 RES1   0.0000
  1087 H        1.3126   4.3641  31.1217   H         1 RES1   0.0000
  1088 H        1.3126   6.3081  33.0549   H         1 RES1   0.0000
  1107 C1       4.2767   3.7345  36.5470   C         1 RES1   0.0000
  1108 C1       6.3955   6.9377  36.5470   C         1 RES1   0.0000
  1131 C2       5.4556   4.6851  36.5488   C         1 RES1   0.0000
  1132 C2       5.2166   5.9871  36.5488   C         1 RES1   0.0000
  1155 H        6.3277   4.3623  36.5488   H         1 RES1   0.0000
  1156 H        4.3445   6.3099  36.5488   H         1 RES1   0.0000
  1173 O2       2.5129   8.6409  28.9940   O         1 RES1   0.0000
  1174 O2       8.1593   8.6409  35.1826   O         1 RES1   0.0000
  1175 O2       2.5129   2.0313  35.1826   O         1 RES1   0.0000
  1220 Zr      12.2533   1.0759  27.8415   Z         1 RES1   0.0000
  1225 Zr      12.2533   9.5963  36.3351   Z         1 RES1   0.0000
  1231 Zr       1.0759  10.0067  30.0881   Z         1 RES1   0.0000
  1234 Zr       9.5963  10.0067  34.0885   Z         1 RES1   0.0000
  1241 Zr       7.3363   9.9933  36.7589   Z         1 RES1   0.0000
  1258 O1      11.4267   0.7347  31.3571   O         1 RES1   0.0000
  1279 O1      11.4106   6.0709  36.1207   O         1 RES1   0.0000
  1280 O1      11.4106   4.6013  28.0559   O         1 RES1   0.0000
  1283 O2      11.1592   2.5129  26.4757   O         1 RES1   0.0000
  1297 O2      10.9487   8.4304  34.9115   O         1 RES1   0.0000
  1298 O2      10.9487   2.2418  29.2651   O         1 RES1   0.0000
  1346 Zr       0.6655  16.2537   1.0759   Z         1 RES1   0.0000
  1349 Zr       7.3363  18.5137   9.5829   Z         1 RES1   0.0000
  1350 Zr       3.3359  18.5137   1.0893   Z         1 RES1   0.0000
  1351 Zr       9.5829  25.1711   0.6789   Z         1 RES1   0.0000
  1353 Zr       1.0893  21.1707   0.6789   Z         1 RES1   0.0000
  1355 Zr       0.6789  27.4177   7.3363   Z         1 RES1   0.0000
  1357 Zr       0.6789  18.9241   3.3359   Z         1 RES1   0.0000
  1369 O1       6.0673  20.3441   9.6521   O         1 RES1   0.0000
  1370 O1       4.6049  25.9977   9.6521   O         1 RES1   0.0000
  1371 O1       4.6049  20.3441   1.0201   O         1 RES1   0.0000
  1372 O1       6.0673  25.9977   1.0201   O         1 RES1   0.0000
  1373 O1       9.6521  23.9021   2.5093   O         1 RES1   0.0000
  1374 O1       9.6521  22.4397   8.1629   O         1 RES1   0.0000
  1375 O1       1.0201  22.4397   2.5093   O         1 RES1   0.0000
  1376 O1       1.0201  23.9021   8.1629   O         1 RES1   0.0000
  1377 O1       2.5093  27.4869   6.0673   O         1 RES1   0.0000
  1378 O1       8.1629  27.4869   4.6049   O         1 RES1   0.0000
  1379 O1       2.5093  18.8549   4.6049   O         1 RES1   0.0000
  1380 O1       8.1629  18.8549   6.0673   O         1 RES1   0.0000
  1387 O1       0.4387  15.3165   3.0996   O         1 RES1   0.0000
  1388 O1       0.4387  13.1905   7.5726   O         1 RES1   0.0000
  1393 O1       6.3991  16.4900   9.3561   O         1 RES1   0.0000
  1394 O1       4.2731  12.0170   9.3561   O         1 RES1   0.0000
  1395 O1       4.2731  16.4900   1.3161   O         1 RES1   0.0000
  1396 O1       6.3991  12.0170   1.3161   O         1 RES1   0.0000
  1415 O1       6.4133  18.5820   7.5423   O         1 RES1   0.0000
  1416 O1       4.2589  27.7598   7.5423   O         1 RES1   0.0000
  1417 O1       4.2589  18.5820   3.1299   O         1 RES1   0.0000
  1418 O1       6.4133  27.7598   3.1299   O         1 RES1   0.0000
  1419 O1       7.5423  24.2481   0.7472   O         1 RES1   0.0000
  1420 O1       7.5423  22.0937   9.9250   O         1 RES1   0.0000
  1421 O1       3.1299  22.0937   0.7472   O         1 RES1   0.0000
  1422 O1       3.1299  24.2481   9.9250   O         1 RES1   0.0000
  1423 O1       0.7472  25.3771   6.4133   O         1 RES1   0.0000
  1424 O1       9.9250  25.3771   4.2589   O         1 RES1   0.0000
  1425 O1       0.7472  20.9647   4.2589   O         1 RES1   0.0000
  1426 O1       9.9250  20.9647   6.4133   O         1 RES1   0.0000
  1431 O1       8.1790  13.5187   1.3037   O         1 RES1   0.0000
  1432 O1       8.1790  14.9883   9.3685   O         1 RES1   0.0000
  1433 O1       2.4932  14.9883   1.3037   O         1 RES1   0.0000
  1434 O1       2.4932  13.5187   9.3685   O         1 RES1   0.0000
  1447 O1       0.4511  17.0964   4.6013   O         1 RES1   0.0000
  1455 C1       0.4494  15.8515   4.2500   C         1 RES1   0.0000
  1456 C1       0.4494  12.6555   6.4222   C         1 RES1   0.0000
  1461 C1       6.9341  15.3396   9.3668   C         1 RES1   0.0000
  1462 C1       3.7381  13.1674   9.3668   C         1 RES1   0.0000
  1463 C1       3.7381  15.3396   1.3054   C         1 RES1   0.0000
  1464 C1       6.9341  13.1674   1.3054   C         1 RES1   0.0000
  1479 C2       0.4440  14.8920   5.4342   C         1 RES1   0.0000
  1480 C2       0.4440  13.6150   5.2380   C         1 RES1   0.0000
  1485 C2       5.9746  14.1554   9.3614   C         1 RES1   0.0000
  1486 C2       4.6976  14.3516   9.3614   C         1 RES1   0.0000
  1487 C2       4.6976  14.1554   1.3108   C         1 RES1   0.0000
  1488 C2       5.9746  14.3516   1.3108   C         1 RES1   0.0000
  1503 H        0.4422  15.2255   6.3027   H         1 RES1   0.0000
  1504 H        0.4422  13.2815   4.3695   H         1 RES1   0.0000
  1509 H        6.3081  13.2869   9.3596   H         1 RES1   0.0000
  1510 H        4.3641  15.2201   9.3596   H         1 RES1   0.0000
  1511 H        4.3641  13.2869   1.3126   H         1 RES1   0.0000
  1512 H        6.3081  15.2201   1.3126   H         1 RES1   0.0000
  1533 C1       6.3955  21.5693   9.7948   C         1 RES1   0.0000
  1534 C1       4.2767  24.7725   9.7948   C         1 RES1   0.0000
  1535 C1       4.2767  21.5693   0.8774   C         1 RES1   0.0000
  1536 C1       6.3955  24.7725   0.8774   C         1 RES1   0.0000
  1537 C1       9.7948  24.2303   3.7345   C         1 RES1   0.0000
  1538 C1       9.7948  22.1115   6.9377   C         1 RES1   0.0000
  1539 C1       0.8774  22.1115   3.7345   C         1 RES1   0.0000
  1540 C1       0.8774  24.2303   6.9377   C         1 RES1   0.0000
  1541 C1       3.7345  27.6296   6.3955   C         1 RES1   0.0000
  1542 C1       6.9377  27.6296   4.2767   C         1 RES1   0.0000
  1543 C1       3.7345  18.7122   4.2767   C         1 RES1   0.0000
  1544 C1       6.9377  18.7122   6.3955   C         1 RES1   0.0000
  1557 C2       5.2166  22.5199   9.7930   C         1 RES1   0.0000
  1558 C2       5.4556  23.8219   9.7930   C         1 RES1   0.0000
  1559 C2       5.4556  22.5199   0.8792   C         1 RES1   0.0000
  1560 C2       5.2166  23.8219   0.8792   C         1 RES1   0.0000
  1561 C2       9.7930  23.0514   4.6851   C         1 RES1   0.0000
  1562 C2       9.7930  23.2904   5.9871   C         1 RES1   0.0000
  1563 C2       0.8792  23.2904   4.6851   C         1 RES1   0.0000
  1564 C2       0.8792  23.0514   5.9871   C         1 RES1   0.0000
  1565 C2       4.6851  27.6278   5.2166   C         1 RES1   0.0000
  1566 C2       5.9871  27.6278   5.4556   C         1 RES1   0.0000
  1567 C2       4.6851  18.7140   5.4556   C         1 RES1   0.0000
  1568 C2       5.9871  18.7140   5.2166   C         1 RES1   0.0000
  1581 H        4.3445  22.1971   9.7930   H         1 RES1   0.0000
  1582 H        6.3277  24.1447   9.7930   H         1 RES1   0.0000
  1583 H        6.3277  22.1971   0.8792   H         1 RES1   0.0000
  1584 H        4.3445  24.1447   0.8792   H         1 RES1   0.0000
  1585 H        9.7930  22.1793   4.3623   H         1 RES1   0.0000
  1586 H        9.7930  24.1625   6.3099   H         1 RES1   0.0000
  1587 H        0.8792  24.1625   4.3623   H         1 RES1   0.0000
  1588 H        0.8792  22.1793   6.3099   H         1 RES1   0.0000
  1589 H        4.3623  27.6278   4.3445   H         1 RES1   0.0000
  1590 H        6.3099  27.6278   6.3277   H         1 RES1   0.0000
  1591 H        4.3623  18.7140   6.3277   H         1 RES1   0.0000
  1592 H        6.3099  18.7140   4.3445   H         1 RES1   0.0000
  1597 O2       8.6409  11.1592   2.5129   O         1 RES1   0.0000
  1598 O2       8.6409  17.3478   8.1593   O         1 RES1   0.0000
  1599 O2       2.0313  17.3478   2.5129   O         1 RES1   0.0000
  1643 O2       8.3948  20.1122   8.3948   O         1 RES1   0.0000
  1644 O2       2.2774  26.2296   8.3948   O         1 RES1   0.0000
  1645 O2       2.2774  20.1122   2.2774   O         1 RES1   0.0000
  1646 O2       8.3948  26.2296   2.2774   O         1 RES1   0.0000
  1650 Zr      12.2533  27.4311   0.6655   Z         1 RES1   0.0000
  1652 Zr      10.0067  12.2533   1.0759   Z         1 RES1   0.0000
  1655 Zr      10.0067  16.2537   9.5963   Z         1 RES1   0.0000
  1657 Zr       0.6655  30.0881   9.5963   Z         1 RES1   0.0000
  1663 Zr       9.5963  18.5003  12.2533   Z         1 RES1   0.0000
  1667 Zr       3.3359  27.8281   9.5829   Z         1 RES1   0.0000
  1669 Zr       7.3363  27.8281   1.0893   Z         1 RES1   0.0000
  1673 Zr       9.5829  21.1707   9.9933   Z         1 RES1   0.0000
  1674 Zr       1.0893  25.1711   9.9933   Z         1 RES1   0.0000
  1676 Zr       9.9933  27.4177   3.3359   Z         1 RES1   0.0000
  1679 Zr       9.9933  18.9241   7.3363   Z         1 RES1   0.0000
  1683 O1       0.7347  13.5223  11.4267   O         1 RES1   0.0000
  1704 O1       6.0709  18.2859  11.4106   O         1 RES1   0.0000
  1705 O1       4.6013  10.2211  11.4106   O         1 RES1   0.0000
  1706 O1      11.4106  23.9057   0.4511   O         1 RES1   0.0000
  1708 O1       0.4511  29.2454   6.0709   O         1 RES1   0.0000
  1713 O2      11.1592  25.9941   2.0313   O         1 RES1   0.0000
  1716 O2       2.0313  28.9940   8.1593   O         1 RES1   0.0000
  1717 O2       8.1593  19.8661  11.1592   O         1 RES1   0.0000
  1719 O2       8.4304  17.0767  10.9487   O         1 RES1   0.0000
  1720 O2       2.2418  11.4303  10.9487   O         1 RES1   0.0000
  1767 Zr       0.6655  16.2537  18.9107   Z         1 RES1   0.0000
  1768 Zr       1.0759  18.5003  16.2537   Z         1 RES1   0.0000
  1769 Zr       7.3363  18.5137  27.4177   Z         1 RES1   0.0000
  1770 Zr       3.3359  18.5137  18.9241   Z         1 RES1   0.0000
  1771 Zr       9.5829  25.1711  18.5137   Z         1 RES1   0.0000
  1772 Zr       1.0893  21.1707  18.5137   Z         1 RES1   0.0000
  1773 Zr       0.6789  27.4177  25.1711   Z         1 RES1   0.0000
  1775 Zr       0.6789  18.9241  21.1707   Z         1 RES1   0.0000
  1780 O1       0.7347  14.9847  17.0803   O         1 RES1   0.0000
  1785 O1       6.0673  20.3441  27.4869   O         1 RES1   0.0000
  1786 O1       4.6049  25.9977  27.4869   O         1 RES1   0.0000
  1787 O1       4.6049  20.3441  18.8549   O         1 RES1   0.0000
  1788 O1       6.0673  25.9977  18.8549   O         1 RES1   0.0000
  1789 O1       9.6521  23.9021  20.3441   O         1 RES1   0.0000
  1790 O1       9.6521  22.4397  25.9977   O         1 RES1   0.0000
  1791 O1       1.0201  22.4397  20.3441   O         1 RES1   0.0000
  1792 O1       1.0201  23.9021  25.9977   O         1 RES1   0.0000
  1793 O1       2.5093  27.4869  23.9021   O         1 RES1   0.0000
  1794 O1       8.1629  27.4869  22.4397   O         1 RES1   0.0000
  1795 O1       2.5093  18.8549  22.4397   O         1 RES1   0.0000
  1796 O1       8.1629  18.8549  23.9021   O         1 RES1   0.0000
  1803 O1       0.4387  15.3165  20.9344   O         1 RES1   0.0000
  1804 O1       0.4387  13.1905  25.4074   O         1 RES1   0.0000
  1805 O1       3.0996  10.2335  13.1905   O         1 RES1   0.0000
  1806 O1       7.5726  10.2335  15.3165   O         1 RES1   0.0000
  1807 O1       3.0996  18.2735  15.3165   O         1 RES1   0.0000
  1808 O1       7.5726  18.2735  13.1905   O         1 RES1   0.0000
  1809 O1       6.3991  16.4900  27.1909   O         1 RES1   0.0000
  1810 O1       4.2731  12.0170  27.1909   O         1 RES1   0.0000
  1811 O1       4.2731  16.4900  19.1509   O         1 RES1   0.0000
  1812 O1       6.3991  12.0170  19.1509   O         1 RES1   0.0000
  1813 O1       9.3561  24.2339  16.4900   O         1 RES1   0.0000
  1814 O1       9.3561  22.1079  12.0170   O         1 RES1   0.0000
  1815 O1       1.3161  22.1079  16.4900   O         1 RES1   0.0000
  1816 O1       1.3161  24.2339  12.0170   O         1 RES1   0.0000
  1825 O1       1.0076  12.0473  13.1763   O         1 RES1   0.0000
  1827 O1       1.0076  16.4597  15.3307   O         1 RES1   0.0000
  1829 O1       6.4133  18.5820  25.3771   O         1 RES1   0.0000
  1830 O1       4.2589  27.7598  25.3771   O         1 RES1   0.0000
  1831 O1       4.2589  18.5820  20.9647   O         1 RES1   0.0000
  1832 O1       6.4133  27.7598  20.9647   O         1 RES1   0.0000
  1833 O1       7.5423  24.2481  18.5820   O         1 RES1   0.0000
  1834 O1       7.5423  22.0937  27.7598   O         1 RES1   0.0000
  1835 O1       3.1299  22.0937  18.5820   O         1 RES1   0.0000
  1836 O1       3.1299  24.2481  27.7598   O         1 RES1   0.0000
  1837 O1       0.7472  25.3771  24.2481   O         1 RES1   0.0000
  1838 O1       9.9250  25.3771  22.0937   O         1 RES1   0.0000
  1839 O1       0.7472  20.9647  22.0937   O         1 RES1   0.0000
  1840 O1       9.9250  20.9647  24.2481   O         1 RES1   0.0000
  1845 O1       8.1790  13.5187  19.1385   O         1 RES1   0.0000
  1846 O1       8.1790  14.9883  27.2033   O         1 RES1   0.0000
  1847 O1       2.4932  14.9883  19.1385   O         1 RES1   0.0000
  1848 O1       2.4932  13.5187  27.2033   O         1 RES1   0.0000
  1849 O1       1.3037  26.0138  13.5187   O         1 RES1   0.0000
  1850 O1       9.3685  26.0138  14.9883   O         1 RES1   0.0000
  1851 O1       1.3037  20.3280  14.9883   O         1 RES1   0.0000
  1852 O1       9.3685  20.3280  13.5187   O         1 RES1   0.0000
  1853 O1       4.6013  18.2859  17.0964   O         1 RES1   0.0000
  1854 O1       6.0709  10.2211  17.0964   O         1 RES1   0.0000
  1859 O1       0.4511  17.0964  22.4361   O         1 RES1   0.0000
  1867 C1       0.4494  15.8515  22.0848   C         1 RES1   0.0000
  1868 C1       0.4494  12.6555  24.2570   C         1 RES1   0.0000
  1869 C1       4.2500  10.2228  12.6555   C         1 RES1   0.0000
  1870 C1       6.4222  10.2228  15.8515   C         1 RES1   0.0000
  1871 C1       4.2500  18.2842  15.8515   C         1 RES1   0.0000
  1872 C1       6.4222  18.2842  12.6555   C         1 RES1   0.0000
  1873 C1       6.9341  15.3396  27.2016   C         1 RES1   0.0000
  1874 C1       3.7381  13.1674  27.2016   C         1 RES1   0.0000
  1875 C1       3.7381  15.3396  19.1402   C         1 RES1   0.0000
  1876 C1       6.9341  13.1674  19.1402   C         1 RES1   0.0000
  1877 C1       9.3668  24.7689  15.3396   C         1 RES1   0.0000
  1878 C1       9.3668  21.5729  13.1674   C         1 RES1   0.0000
  1879 C1       1.3054  21.5729  15.3396   C         1 RES1   0.0000
  1880 C1       1.3054  24.7689  13.1674   C         1 RES1   0.0000
  1891 C2       0.4440  14.8920  23.2690   C         1 RES1   0.0000
  1892 C2       0.4440  13.6150  23.0728   C         1 RES1   0.0000
  1893 C2       5.4342  10.2282  13.6150   C         1 RES1   0.0000
  1894 C2       5.2380  10.2282  14.8920   C         1 RES1   0.0000
  1895 C2       5.4342  18.2788  14.8920   C         1 RES1   0.0000
  1896 C2       5.2380  18.2788  13.6150   C         1 RES1   0.0000
  1897 C2       5.9746  14.1554  27.1962   C         1 RES1   0.0000
  1898 C2       4.6976  14.3516  27.1962   C         1 RES1   0.0000
  1899 C2       4.6976  14.1554  19.1456   C         1 RES1   0.0000
  1900 C2       5.9746  14.3516  19.1456   C         1 RES1   0.0000
  1901 C2       9.3614  23.8094  14.1554   C         1 RES1   0.0000
  1902 C2       9.3614  22.5324  14.3516   C         1 RES1   0.0000
  1903 C2       1.3108  22.5324  14.1554   C         1 RES1   0.0000
  1904 C2       1.3108  23.8094  14.3516   C         1 RES1   0.0000
  1915 H        0.4422  15.2255  24.1375   H         1 RES1   0.0000
  1916 H        0.4422  13.2815  22.2043   H         1 RES1   0.0000
  1917 H        6.3027  10.2300  13.2815   H         1 RES1   0.0000
  1918 H        4.3695  10.2300  15.2255   H         1 RES1   0.0000
  1919 H        6.3027  18.2770  15.2255   H         1 RES1   0.0000
  1920 H        4.3695  18.2770  13.2815   H         1 RES1   0.0000
  1921 H        6.3081  13.2869  27.1944   H         1 RES1   0.0000
  1922 H        4.3641  15.2201  27.1944   H         1 RES1   0.0000
  1923 H        4.3641  13.2869  19.1474   H         1 RES1   0.0000
  1924 H        6.3081  15.2201  19.1474   H         1 RES1   0.0000
  1925 H        9.3596  24.1429  13.2869   H         1 RES1   0.0000
  1926 H        9.3596  22.1989  15.2201   H         1 RES1   0.0000
  1927 H        1.3126  22.1989  13.2869   H         1 RES1   0.0000
  1928 H        1.3126  24.1429  15.2201   H         1 RES1   0.0000
  1939 C1       0.8774  15.3129  15.8551   C         1 RES1   0.0000
  1940 C1       0.8774  13.1941  12.6519   C         1 RES1   0.0000
  1945 C1       6.3955  21.5693  27.6296   C         1 RES1   0.0000
  1946 C1       4.2767  24.7725  27.6296   C         1 RES1   0.0000
  1947 C1       4.2767  21.5693  18.7122   C         1 RES1   0.0000
  1948 C1       6.3955  24.7725  18.7122   C         1 RES1   0.0000
  1949 C1       9.7948  24.2303  21.5693   C         1 RES1   0.0000
  1950 C1       9.7948  22.1115  24.7725   C         1 RES1   0.0000
  1951 C1       0.8774  22.1115  21.5693   C         1 RES1   0.0000
  1952 C1       0.8774  24.2303  24.7725   C         1 RES1   0.0000
  1953 C1       3.7345  27.6296  24.2303   C         1 RES1   0.0000
  1954 C1       6.9377  27.6296  22.1115   C         1 RES1   0.0000
  1955 C1       3.7345  18.7122  22.1115   C         1 RES1   0.0000
  1956 C1       6.9377  18.7122  24.2303   C         1 RES1   0.0000
  1963 C2       0.8756  14.1340  14.9045   C         1 RES1   0.0000
  1964 C2       0.8756  14.3730  13.6025   C         1 RES1   0.0000
  1969 C2       5.2166  22.5199  27.6278   C         1 RES1   0.0000
  1970 C2       5.4556  23.8219  27.6278   C         1 RES1   0.0000
  1971 C2       5.4556  22.5199  18.7140   C         1 RES1   0.0000
  1972 C2       5.2166  23.8219  18.7140   C         1 RES1   0.0000
  1973 C2       9.7930  23.0514  22.5199   C         1 RES1   0.0000
  1974 C2       9.7930  23.2904  23.8219   C         1 RES1   0.0000
  1975 C2       0.8792  23.2904  22.5199   C         1 RES1   0.0000
  1976 C2       0.8792  23.0514  23.8219   C         1 RES1   0.0000
  1977 C2       4.6851  27.6278  23.0514   C         1 RES1   0.0000
  1978 C2       5.9871  27.6278  23.2904   C         1 RES1   0.0000
  1979 C2       4.6851  18.7140  23.2904   C         1 RES1   0.0000
  1980 C2       5.9871  18.7140  23.0514   C         1 RES1   0.0000
  1987 H        0.8756  13.2619  15.2273   H         1 RES1   0.0000
  1988 H        0.8756  15.2451  13.2797   H         1 RES1   0.0000
  1993 H        4.3445  22.1971  27.6278   H         1 RES1   0.0000
  1994 H        6.3277  24.1447  27.6278   H         1 RES1   0.0000
  1995 H        6.3277  22.1971  18.7140   H         1 RES1   0.0000
  1996 H        4.3445  24.1447  18.7140   H         1 RES1   0.0000
  1997 H        9.7930  22.1793  22.1971   H         1 RES1   0.0000
  1998 H        9.7930  24.1625  24.1447   H         1 RES1   0.0000
  1999 H        0.8792  24.1625  22.1971   H         1 RES1   0.0000
  2000 H        0.8792  22.1793  24.1447   H         1 RES1   0.0000
  2001 H        4.3623  27.6278  22.1793   H         1 RES1   0.0000
  2002 H        6.3099  27.6278  24.1625   H         1 RES1   0.0000
  2003 H        4.3623  18.7140  24.1625   H         1 RES1   0.0000
  2004 H        6.3099  18.7140  22.1793   H         1 RES1   0.0000
  2009 O2       8.6409  11.1592  20.3477   O         1 RES1   0.0000
  2010 O2       8.6409  17.3478  25.9941   O         1 RES1   0.0000
  2011 O2       2.0313  17.3478  20.3477   O         1 RES1   0.0000
  2012 O2       2.5129  26.4757  11.1592   O         1 RES1   0.0000
  2013 O2       8.1593  26.4757  17.3478   O         1 RES1   0.0000
  2014 O2       2.5129  19.8661  17.3478   O         1 RES1   0.0000
  2015 O2       2.2418  17.0767  17.5583   O         1 RES1   0.0000
  2016 O2       8.4304  11.4303  17.5583   O         1 RES1   0.0000
  2047 O2       8.3948  20.1122  26.2296   O         1 RES1   0.0000
  2048 O2       2.2774  26.2296  26.2296   O         1 RES1   0.0000
  2049 O2       2.2774  20.1122  20.1122   O         1 RES1   0.0000
  2050 O2       8.3948  26.2296  20.1122   O         1 RES1   0.0000
  2052 Zr      12.2533  18.9107  10.0067   Z         1 RES1   0.0000
  2054 Zr      12.2533  27.4311  18.5003   Z         1 RES1   0.0000
  2056 Zr      10.0067  12.2533  18.9107   Z         1 RES1   0.0000
  2057 Zr      10.0067  16.2537  27.4311   Z         1 RES1   0.0000
  2058 Zr       0.6655  30.0881  27.4311   Z         1 RES1   0.0000
  2059 Zr       1.0759  27.8415  12.2533   Z         1 RES1   0.0000
  2061 Zr       9.5963  27.8415  16.2537   Z         1 RES1   0.0000
  2063 Zr       9.5963  18.5003  30.0881   Z         1 RES1   0.0000
  2065 Zr       3.3359  27.8281  27.4177   Z         1 RES1   0.0000
  2067 Zr       7.3363  27.8281  18.9241   Z         1 RES1   0.0000
  2070 Zr       9.5829  21.1707  27.8281   Z         1 RES1   0.0000
  2071 Zr       1.0893  25.1711  27.8281   Z         1 RES1   0.0000
  2072 Zr       9.9933  27.4177  21.1707   Z         1 RES1   0.0000
  2073 Zr       9.9933  18.9241  25.1711   Z         1 RES1   0.0000
  2077 O1       0.7347  13.5223  29.2615   O         1 RES1   0.0000
  2078 O1      11.4267   9.9375  14.9847   O         1 RES1   0.0000
  2079 O1      11.4267  18.5695  13.5223   O         1 RES1   0.0000
  2086 O1       9.6646  12.0473  15.3307   O         1 RES1   0.0000
  2087 O1       9.6646  16.4597  13.1763   O         1 RES1   0.0000
  2092 O1       6.0709  18.2859  29.2454   O         1 RES1   0.0000
  2093 O1       4.6013  10.2211  29.2454   O         1 RES1   0.0000
  2094 O1      11.4106  23.9057  18.2859   O         1 RES1   0.0000
  2095 O1      11.4106  22.4361  10.2211   O         1 RES1   0.0000
  2096 O1       0.4511  29.2454  23.9057   O         1 RES1   0.0000
  2098 O2      11.1592  20.3477   8.6409   O         1 RES1   0.0000
  2099 O2      11.1592  25.9941  19.8661   O         1 RES1   0.0000
  2102 O2       2.0313  28.9940  25.9941   O         1 RES1   0.0000
  2103 O2       8.1593  19.8661  28.9940   O         1 RES1   0.0000
  2105 O2       8.4304  17.0767  28.7835   O         1 RES1   0.0000
  2106 O2       2.2418  11.4303  28.7835   O         1 RES1   0.0000
  2108 O2      10.9487  26.2652  17.0767   O         1 RES1   0.0000
  2109 O2      10.9487  20.0766  11.4303   O         1 RES1   0.0000
  2134 O2      11.1948  17.3122  11.1948   O         1 RES1   0.0000
  2137 O2      11.1948  11.1948  17.3122   O         1 RES1   0.0000
  2143 Zr       0.6655  16.2537  36.7455   Z         1 RES1   0.0000
  2144 Zr       1.0759  18.5003  34.0885   Z         1 RES1   0.0000
  2146 Zr       3.3359  18.5137  36.7589   Z         1 RES1   0.0000
  2147 Zr       9.5829  25.1711  36.3485   Z         1 RES1   0.0000
  2148 Zr       1.0893  21.1707  36.3485   Z         1 RES1   0.0000
  2156 O1       0.7347  14.9847  34.9151   O         1 RES1   0.0000
  2163 O1       4.6049  20.3441  36.6897   O         1 RES1   0.0000
  2164 O1       6.0673  25.9977  36.6897   O         1 RES1   0.0000
  2181 O1       3.0996  10.2335  31.0253   O         1 RES1   0.0000
  2182 O1       7.5726  10.2335  33.1513   O         1 RES1   0.0000
  2183 O1       3.0996  18.2735  33.1513   O         1 RES1   0.0000
  2184 O1       7.5726  18.2735  31.0253   O         1 RES1   0.0000
  2187 O1       4.2731  16.4900  36.9857   O         1 RES1   0.0000
  2188 O1       6.3991  12.0170  36.9857   O         1 RES1   0.0000
  2189 O1       9.3561  24.2339  34.3248   O         1 RES1   0.0000
  2190 O1       9.3561  22.1079  29.8518   O         1 RES1   0.0000
  2191 O1       1.3161  22.1079  34.3248   O         1 RES1   0.0000
  2192 O1       1.3161  24.2339  29.8518   O         1 RES1   0.0000
  2201 O1       1.0076  12.0473  31.0111   O         1 RES1   0.0000
  2203 O1       1.0076  16.4597  33.1655   O         1 RES1   0.0000
  2209 O1       7.5423  24.2481  36.4168   O         1 RES1   0.0000
  2211 O1       3.1299  22.0937  36.4168   O         1 RES1   0.0000
  2221 O1       8.1790  13.5187  36.9733   O         1 RES1   0.0000
  2223 O1       2.4932  14.9883  36.9733   O         1 RES1   0.0000
  2225 O1       1.3037  26.0138  31.3535   O         1 RES1   0.0000
  2226 O1       9.3685  26.0138  32.8231   O         1 RES1   0.0000
  2227 O1       1.3037  20.3280  32.8231   O         1 RES1   0.0000
  2228 O1       9.3685  20.3280  31.3535   O         1 RES1   0.0000
  2229 O1       4.6013  18.2859  34.9312   O         1 RES1   0.0000
  2230 O1       6.0709  10.2211  34.9312   O         1 RES1   0.0000
  2245 C1       4.2500  10.2228  30.4903   C         1 RES1   0.0000
  2246 C1       6.4222  10.2228  33.6863   C         1 RES1   0.0000
  2247 C1       4.2500  18.2842  33.6863   C         1 RES1   0.0000
  2248 C1       6.4222  18.2842  30.4903   C         1 RES1   0.0000
  2251 C1       3.7381  15.3396  36.9750   C         1 RES1   0.0000
  2252 C1       6.9341  13.1674  36.9750   C         1 RES1   0.0000
  2253 C1       9.3668  24.7689  33.1744   C         1 RES1   0.0000
  2254 C1       9.3668  21.5729  31.0022   C         1 RES1   0.0000
  2255 C1       1.3054  21.5729  33.1744   C         1 RES1   0.0000
  2256 C1       1.3054  24.7689  31.0022   C         1 RES1   0.0000
  2269 C2       5.4342  10.2282  31.4498   C         1 RES1   0.0000
  2270 C2       5.2380  10.2282  32.7268   C         1 RES1   0.0000
  2271 C2       5.4342  18.2788  32.7268   C         1 RES1   0.0000
  2272 C2       5.2380  18.2788  31.4498   C         1 RES1   0.0000
  2275 C2       4.6976  14.1554  36.9804   C         1 RES1   0.0000
  2276 C2       5.9746  14.3516  36.9804   C         1 RES1   0.0000
  2277 C2       9.3614  23.8094  31.9902   C         1 RES1   0.0000
  2278 C2       9.3614  22.5324  32.1864   C         1 RES1   0.0000
  2279 C2       1.3108  22.5324  31.9902   C         1 RES1   0.0000
  2280 C2       1.3108  23.8094  32.1864   C         1 RES1   0.0000
  2293 H        6.3027  10.2300  31.1163   H         1 RES1   0.0000
  2294 H        4.3695  10.2300  33.0603   H         1 RES1   0.0000
  2295 H        6.3027  18.2770  33.0603   H         1 RES1   0.0000
  2296 H        4.3695  18.2770  31.1163   H         1 RES1   0.0000
  2299 H        4.3641  13.2869  36.9822   H         1 RES1   0.0000
  2300 H        6.3081  15.2201  36.9822   H         1 RES1   0.0000
  2301 H        9.3596  24.1429  31.1217   H         1 RES1   0.0000
  2302 H        9.3596  22.1989  33.0549   H         1 RES1   0.0000
  2303 H        1.3126  22.1989  31.1217   H         1 RES1   0.0000
  2304 H        1.3126  24.1429  33.0549   H         1 RES1   0.0000
  2315 C1       0.8774  15.3129  33.6899   C         1 RES1   0.0000
  2316 C1       0.8774  13.1941  30.4867   C         1 RES1   0.0000
  2323 C1       4.2767  21.5693  36.5470   C         1 RES1   0.0000
  2324 C1       6.3955  24.7725  36.5470   C         1 RES1   0.0000
  2339 C2       0.8756  14.1340  32.7393   C         1 RES1   0.0000
  2340 C2       0.8756  14.3730  31.4373   C         1 RES1   0.0000
  2347 C2       5.4556  22.5199  36.5488   C         1 RES1   0.0000
  2348 C2       5.2166  23.8219  36.5488   C         1 RES1   0.0000
  2363 H        0.8756  13.2619  33.0621   H         1 RES1   0.0000
  2364 H        0.8756  15.2451  31.1145   H         1 RES1   0.0000
  2371 H        6.3277  22.1971  36.5488   H         1 RES1   0.0000
  2372 H        4.3445  24.1447  36.5488   H         1 RES1   0.0000
  2388 O2       2.5129  26.4757  28.9940   O         1 RES1   0.0000
  2389 O2       8.1593  26.4757  35.1826   O         1 RES1   0.0000
  2390 O2       2.5129  19.8661  35.1826   O         1 RES1   0.0000
  2391 O2       2.2418  17.0767  35.3931   O         1 RES1   0.0000
  2392 O2       8.4304  11.4303  35.3931   O         1 RES1   0.0000
  2428 Zr      12.2533  18.9107  27.8415   Z         1 RES1   0.0000
  2430 Zr      12.2533  27.4311  36.3351   Z         1 RES1   0.0000
  2432 Zr      10.0067  12.2533  36.7455   Z         1 RES1   0.0000
  2436 Zr       1.0759  27.8415  30.0881   Z         1 RES1   0.0000
  2438 Zr       9.5963  27.8415  34.0885   Z         1 RES1   0.0000
  2444 Zr       7.3363  27.8281  36.7589   Z         1 RES1   0.0000
  2455 O1      11.4267   9.9375  32.8195   O         1 RES1   0.0000
  2456 O1      11.4267  18.5695  31.3571   O         1 RES1   0.0000
  2463 O1       9.6646  12.0473  33.1655   O         1 RES1   0.0000
  2464 O1       9.6646  16.4597  31.0111   O         1 RES1   0.0000
  2471 O1      11.4106  23.9057  36.1207   O         1 RES1   0.0000
  2472 O1      11.4106  22.4361  28.0559   O         1 RES1   0.0000
  2475 O2      11.1592  20.3477  26.4757   O         1 RES1   0.0000
  2486 O2      10.9487  26.2652  34.9115   O         1 RES1   0.0000
  2487 O2      10.9487  20.0766  29.2651   O         1 RES1   0.0000
  2514 O2      11.1948  17.3122  29.0296   O         1 RES1   0.0000
  2518 O2      11.1948  11.1948  35.1470   O         1 RES1   0.0000
  2526 Zr       0.6655  34.0885   1.0759   Z         1 RES1   0.0000
  2529 Zr       7.3363  36.3485   9.5829   Z         1 RES1   0.0000
  2530 Zr       3.3359  36.3485   1.0893   Z         1 RES1   0.0000
  2537 Zr       0.6789  36.7589   3.3359   Z         1 RES1   0.0000
  2559 O1       2.5093  36.6897   4.6049   O         1 RES1   0.0000
  2560 O1       8.1629  36.6897   6.0673   O         1 RES1   0.0000
  2567 O1       0.4387  33.1513   3.0996   O         1 RES1   0.0000
  2568 O1       0.4387  31.0253   7.5726   O         1 RES1   0.0000
  2573 O1       6.3991  34.3248   9.3561   O         1 RES1   0.0000
  2574 O1       4.2731  29.8518   9.3561   O         1 RES1   0.0000
  2575 O1       4.2731  34.3248   1.3161   O         1 RES1   0.0000
  2576 O1       6.3991  29.8518   1.3161   O         1 RES1   0.0000
  2595 O1       6.4133  36.4168   7.5423   O         1 RES1   0.0000
  2597 O1       4.2589  36.4168   3.1299   O         1 RES1   0.0000
  2611 O1       8.1790  31.3535   1.3037   O         1 RES1   0.0000
  2612 O1       8.1790  32.8231   9.3685   O         1 RES1   0.0000
  2613 O1       2.4932  32.8231   1.3037   O         1 RES1   0.0000
  2614 O1       2.4932  31.3535   9.3685   O         1 RES1   0.0000
  2627 O1       0.4511  34.9312   4.6013   O         1 RES1   0.0000
  2635 C1       0.4494  33.6863   4.2500   C         1 RES1   0.0000
  2636 C1       0.4494  30.4903   6.4222   C         1 RES1   0.0000
  2641 C1       6.9341  33.1744   9.3668   C         1 RES1   0.0000
  2642 C1       3.7381  31.0022   9.3668   C         1 RES1   0.0000
  2643 C1       3.7381  33.1744   1.3054   C         1 RES1   0.0000
  2644 C1       6.9341  31.0022   1.3054   C         1 RES1   0.0000
  2659 C2       0.4440  32.7268   5.4342   C         1 RES1   0.0000
  2660 C2       0.4440  31.4498   5.2380   C         1 RES1   0.0000
  2665 C2       5.9746  31.9902   9.3614   C         1 RES1   0.0000
  2666 C2       4.6976  32.1864   9.3614   C         1 RES1   0.0000
  2667 C2       4.6976  31.9902   1.3108   C         1 RES1   0.0000
  2668 C2       5.9746  32.1864   1.3108   C         1 RES1   0.0000
  2683 H        0.4422  33.0603   6.3027   H         1 RES1   0.0000
  2684 H        0.4422  31.1163   4.3695   H         1 RES1   0.0000
  2689 H        6.3081  31.1217   9.3596   H         1 RES1   0.0000
  2690 H        4.3641  33.0549   9.3596   H         1 RES1   0.0000
  2691 H        4.3641  31.1217   1.3126   H         1 RES1   0.0000
  2692 H        6.3081  33.0549   1.3126   H         1 RES1   0.0000
  2723 C1       3.7345  36.5470   4.2767   C         1 RES1   0.0000
  2724 C1       6.9377  36.5470   6.3955   C         1 RES1   0.0000
  2747 C2       4.6851  36.5488   5.4556   C         1 RES1   0.0000
  2748 C2       5.9871  36.5488   5.2166   C         1 RES1   0.0000
  2771 H        4.3623  36.5488   6.3277   H         1 RES1   0.0000
  2772 H        6.3099  36.5488   4.3445   H         1 RES1   0.0000
  2777 O2       8.6409  28.9940   2.5129   O         1 RES1   0.0000
  2778 O2       8.6409  35.1826   8.1593   O         1 RES1   0.0000
  2779 O2       2.0313  35.1826   2.5129   O         1 RES1   0.0000
  2832 Zr      10.0067  30.0881   1.0759   Z         1 RES1   0.0000
  2835 Zr      10.0067  34.0885   9.5963   Z         1 RES1   0.0000
  2843 Zr       9.5963  36.3351  12.2533   Z         1 RES1   0.0000
  2859 Zr       9.9933  36.7589   7.3363   Z         1 RES1   0.0000
  2863 O1       0.7347  31.3571  11.4267   O         1 RES1   0.0000
  2884 O1       6.0709  36.1207  11.4106   O         1 RES1   0.0000
  2885 O1       4.6013  28.0559  11.4106   O         1 RES1   0.0000
  2899 O2       8.4304  34.9115  10.9487   O         1 RES1   0.0000
  2900 O2       2.2418  29.2651  10.9487   O         1 RES1   0.0000
  2947 Zr       0.6655  34.0885  18.9107   Z         1 RES1   0.0000
  2948 Zr       1.0759  36.3351  16.2537   Z         1 RES1   0.0000
  2949 Zr       7.3363  36.3485  27.4177   Z         1 RES1   0.0000
  2950 Zr       3.3359  36.3485  18.9241   Z         1 RES1   0.0000
  2955 Zr       0.6789  36.7589  21.1707   Z         1 RES1   0.0000
  2960 O1       0.7347  32.8195  17.0803   O         1 RES1   0.0000
  2975 O1       2.5093  36.6897  22.4397   O         1 RES1   0.0000
  2976 O1       8.1629  36.6897  23.9021   O         1 RES1   0.0000
  2983 O1       0.4387  33.1513  20.9344   O         1 RES1   0.0000
  2984 O1       0.4387  31.0253  25.4074   O         1 RES1   0.0000
  2985 O1       3.0996  28.0683  13.1905   O         1 RES1   0.0000
  2986 O1       7.5726  28.0683  15.3165   O         1 RES1   0.0000
  2987 O1       3.0996  36.1083  15.3165   O         1 RES1   0.0000
  2988 O1       7.5726  36.1083  13.1905   O         1 RES1   0.0000
  2989 O1       6.3991  34.3248  27.1909   O         1 RES1   0.0000
  2990 O1       4.2731  29.8518  27.1909   O         1 RES1   0.0000
  2991 O1       4.2731  34.3248  19.1509   O         1 RES1   0.0000
  2992 O1       6.3991  29.8518  19.1509   O         1 RES1   0.0000
  3005 O1       1.0076  29.8821  13.1763   O         1 RES1   0.0000
  3007 O1       1.0076  34.2945  15.3307   O         1 RES1   0.0000
  3009 O1       6.4133  36.4168  25.3771   O         1 RES1   0.0000
  3011 O1       4.2589  36.4168  20.9647   O         1 RES1   0.0000
  3025 O1       8.1790  31.3535  19.1385   O         1 RES1   0.0000
  3026 O1       8.1790  32.8231  27.2033   O         1 RES1   0.0000
  3027 O1       2.4932  32.8231  19.1385   O         1 RES1   0.0000
  3028 O1       2.4932  31.3535  27.2033   O         1 RES1   0.0000
  3033 O1       4.6013  36.1207  17.0964   O         1 RES1   0.0000
  3034 O1       6.0709  28.0559  17.0964   O         1 RES1   0.0000
  3039 O1       0.4511  34.9312  22.4361   O         1 RES1   0.0000
  3047 C1       0.4494  33.6863  22.0848   C         1 RES1   0.0000
  3048 C1       0.4494  30.4903  24.2570   C         1 RES1   0.0000
  3049 C1       4.2500  28.0576  12.6555   C         1 RES1   0.0000
  3050 C1       6.4222  28.0576  15.8515   C         1 RES1   0.0000
  3051 C1       4.2500  36.1190  15.8515   C         1 RES1   0.0000
  3052 C1       6.4222  36.1190  12.6555   C         1 RES1   0.0000
  3053 C1       6.9341  33.1744  27.2016   C         1 RES1   0.0000
  3054 C1       3.7381  31.0022  27.2016   C         1 RES1   0.0000
  3055 C1       3.7381  33.1744  19.1402   C         1 RES1   0.0000
  3056 C1       6.9341  31.0022  19.1402   C         1 RES1   0.0000
  3071 C2       0.4440  32.7268  23.2690   C         1 RES1   0.0000
  3072 C2       0.4440  31.4498  23.0728   C         1 RES1   0.0000
  3073 C2       5.4342  28.0630  13.6150   C         1 RES1   0.0000
  3074 C2       5.2380  28.0630  14.8920   C         1 RES1   0.0000
  3075 C2       5.4342  36.1136  14.8920   C         1 RES1   0.0000
  3076 C2       5.2380  36.1136  13.6150   C         1 RES1   0.0000
  3077 C2       5.9746  31.9902  27.1962   C         1 RES1   0.0000
  3078 C2       4.6976  32.1864  27.1962   C         1 RES1   0.0000
  3079 C2       4.6976  31.9902  19.1456   C         1 RES1   0.0000
  3080 C2       5.9746  32.1864  19.1456   C         1 RES1   0.0000
  3095 H        0.4422  33.0603  24.1375   H         1 RES1   0.0000
  3096 H        0.4422  31.1163  22.2043   H         1 RES1   0.0000
  3097 H        6.3027  28.0648  13.2815   H         1 RES1   0.0000
  3098 H        4.3695  28.0648  15.2255   H         1 RES1   0.0000
  3099 H        6.3027  36.1118  15.2255   H         1 RES1   0.0000
  3100 H        4.3695  36.1118  13.2815   H         1 RES1   0.0000
  3101 H        6.3081  31.1217  27.1944   H         1 RES1   0.0000
  3102 H        4.3641  33.0549  27.1944   H         1 RES1   0.0000
  3103 H        4.3641  31.1217  19.1474   H         1 RES1   0.0000
  3104 H        6.3081  33.0549  19.1474   H         1 RES1   0.0000
  3119 C1       0.8774  33.1477  15.8551   C         1 RES1   0.0000
  3120 C1       0.8774  31.0289  12.6519   C         1 RES1   0.0000
  3135 C1       3.7345  36.5470  22.1115   C         1 RES1   0.0000
  3136 C1       6.9377  36.5470  24.2303   C         1 RES1   0.0000
  3143 C2       0.8756  31.9688  14.9045   C         1 RES1   0.0000
  3144 C2       0.8756  32.2078  13.6025   C         1 RES1   0.0000
  3159 C2       4.6851  36.5488  23.2904   C         1 RES1   0.0000
  3160 C2       5.9871  36.5488  23.0514   C         1 RES1   0.0000
  3167 H        0.8756  31.0967  15.2273   H         1 RES1   0.0000
  3168 H        0.8756  33.0799  13.2797   H         1 RES1   0.0000
  3183 H        4.3623  36.5488  24.1625   H         1 RES1   0.0000
  3184 H        6.3099  36.5488  22.1793   H         1 RES1   0.0000
  3189 O2       8.6409  28.9940  20.3477   O         1 RES1   0.0000
  3190 O2       8.6409  35.1826  25.9941   O         1 RES1   0.0000
  3191 O2       2.0313  35.1826  20.3477   O         1 RES1   0.0000
  3195 O2       2.2418  34.9115  17.5583   O         1 RES1   0.0000
  3196 O2       8.4304  29.2651  17.5583   O         1 RES1   0.0000
  3232 Zr      12.2533  36.7455  10.0067   Z         1 RES1   0.0000
  3236 Zr      10.0067  30.0881  18.9107   Z         1 RES1   0.0000
  3237 Zr      10.0067  34.0885  27.4311   Z         1 RES1   0.0000
  3243 Zr       9.5963  36.3351  30.0881   Z         1 RES1   0.0000
  3253 Zr       9.9933  36.7589  25.1711   Z         1 RES1   0.0000
  3257 O1       0.7347  31.3571  29.2615   O         1 RES1   0.0000
  3258 O1      11.4267  27.7723  14.9847   O         1 RES1   0.0000
  3259 O1      11.4267  36.4043  13.5223   O         1 RES1   0.0000
  3266 O1       9.6646  29.8821  15.3307   O         1 RES1   0.0000
  3267 O1       9.6646  34.2945  13.1763   O         1 RES1   0.0000
  3272 O1       6.0709  36.1207  29.2454   O         1 RES1   0.0000
  3273 O1       4.6013  28.0559  29.2454   O         1 RES1   0.0000
  3285 O2       8.4304  34.9115  28.7835   O         1 RES1   0.0000
  3286 O2       2.2418  29.2651  28.7835   O         1 RES1   0.0000
  3314 O2      11.1948  35.1470  11.1948   O         1 RES1   0.0000
  3317 O2      11.1948  29.0296  17.3122   O         1 RES1   0.0000
  3323 Zr       0.6655  34.0885  36.7455   Z         1 RES1   0.0000
  3324 Zr       1.0759  36.3351  34.0885   Z         1 RES1   0.0000
  3326 Zr       3.3359  36.3485  36.7589   Z         1 RES1   0.0000
  3336 O1       0.7347  32.8195  34.9151   O         1 RES1   0.0000
  3361 O1       3.0996  28.0683  31.0253   O         1 RES1   0.0000
  3362 O1       7.5726  28.0683  33.1513   O         1 RES1   0.0000
  3363 O1       3.0996  36.1083  33.1513   O         1 RES1   0.0000
  3364 O1       7.5726  36.1083  31.0253   O         1 RES1   0.0000
  3367 O1       4.2731  34.3248  36.9857   O         1 RES1   0.0000
  3368 O1       6.3991  29.8518  36.9857   O         1 RES1   0.0000
  3381 O1       1.0076  29.8821  31.0111   O         1 RES1   0.0000
  3383 O1       1.0076  34.2945  33.1655   O         1 RES1   0.0000
  3401 O1       8.1790  31.3535  36.9733   O         1 RES1   0.0000
  3403 O1       2.4932  32.8231  36.9733   O         1 RES1   0.0000
  3409 O1       4.6013  36.1207  34.9312   O         1 RES1   0.0000
  3410 O1       6.0709  28.0559  34.9312   O         1 RES1   0.0000
  3425 C1       4.2500  28.0576  30.4903   C         1 RES1   0.0000
  3426 C1       6.4222  28.0576  33.6863   C         1 RES1   0.0000
  3427 C1       4.2500  36.1190  33.6863   C         1 RES1   0.0000
  3428 C1       6.4222  36.1190  30.4903   C         1 RES1   0.0000
  3431 C1       3.7381  33.1744  36.9750   C         1 RES1   0.0000
  3432 C1       6.9341  31.0022  36.9750   C         1 RES1   0.0000
  3449 C2       5.4342  28.0630  31.4498   C         1 RES1   0.0000
  3450 C2       5.2380  28.0630  32.7268   C         1 RES1   0.0000
  3451 C2       5.4342  36.1136  32.7268   C         1 RES1   0.0000
  3452 C2       5.2380  36.1136  31.4498   C         1 RES1   0.0000
  3455 C2       4.6976  31.9902  36.9804   C         1 RES1   0.0000
  3456 C2       5.9746  32.1864  36.9804   C         1 RES1   0.0000
  3473 H        6.3027  28.0648  31.1163   H         1 RES1   0.0000
  3474 H        4.3695  28.0648  33.0603   H         1 RES1   0.0000
  3475 H        6.3027  36.1118  33.0603   H         1 RES1   0.0000
  3476 H        4.3695  36.1118  31.1163   H         1 RES1   0.0000
  3479 H        4.3641  31.1217  36.9822   H         1 RES1   0.0000
  3480 H        6.3081  33.0549  36.9822   H         1 RES1   0.0000
  3495 C1       0.8774  33.1477  33.6899   C         1 RES1   0.0000
  3496 C1       0.8774  31.0289  30.4867   C         1 RES1   0.0000
  3519 C2       0.8756  31.9688  32.7393   C         1 RES1   0.0000
  3520 C2       0.8756  32.2078  31.4373   C         1 RES1   0.0000
  3543 H        0.8756  31.0967  33.0621   H         1 RES1   0.0000
  3544 H        0.8756  33.0799  31.1145   H         1 RES1   0.0000
  3571 O2       2.2418  34.9115  35.3931   O         1 RES1   0.0000
  3572 O2       8.4304  29.2651  35.3931   O         1 RES1   0.0000
  3608 Zr      12.2533  36.7455  27.8415   Z         1 RES1   0.0000
  3612 Zr      10.0067  30.0881  36.7455   Z         1 RES1   0.0000
  3635 O1      11.4267  27.7723  32.8195   O         1 RES1   0.0000
  3636 O1      11.4267  36.4043  31.3571   O         1 RES1   0.0000
  3643 O1       9.6646  29.8821  33.1655   O         1 RES1   0.0000
  3644 O1       9.6646  34.2945  31.0111   O         1 RES1   0.0000
  3694 O2      11.1948  35.1470  29.0296   O         1 RES1   0.0000
  3698 O2      11.1948  29.0296  35.1470   O         1 RES1   0.0000
  3702 Zr      16.2537   1.0759   0.6655   Z         1 RES1   0.0000
  3709 Zr      25.1711   0.6789   9.5829   Z         1 RES1   0.0000
  3711 Zr      21.1707   0.6789   1.0893   Z         1 RES1   0.0000
  3713 Zr      27.4177   7.3363   0.6789   Z         1 RES1   0.0000
  3715 Zr      18.9241   3.3359   0.6789   Z         1 RES1   0.0000
  3717 Zr      18.5137   9.5829   7.3363   Z         1 RES1   0.0000
  3718 Zr      18.5137   1.0893   3.3359   Z         1 RES1   0.0000
  3729 O1      23.9021   2.5093   9.6521   O         1 RES1   0.0000
  3730 O1      22.4397   8.1629   9.6521   O         1 RES1   0.0000
  3731 O1      22.4397   2.5093   1.0201   O         1 RES1   0.0000
  3732 O1      23.9021   8.1629   1.0201   O         1 RES1   0.0000
  3733 O1      27.4869   6.0673   2.5093   O         1 RES1   0.0000
  3734 O1      27.4869   4.6049   8.1629   O         1 RES1   0.0000
  3735 O1      18.8549   4.6049   2.5093   O         1 RES1   0.0000
  3736 O1      18.8549   6.0673   8.1629   O         1 RES1   0.0000
  3737 O1      20.3441   9.6521   6.0673   O         1 RES1   0.0000
  3738 O1      25.9977   9.6521   4.6049   O         1 RES1   0.0000
  3739 O1      20.3441   1.0201   4.6049   O         1 RES1   0.0000
  3740 O1      25.9977   1.0201   6.0673   O         1 RES1   0.0000
  3743 O1      15.3165   3.0996   0.4387   O         1 RES1   0.0000
  3744 O1      13.1905   7.5726   0.4387   O         1 RES1   0.0000
  3761 O1      16.4900   9.3561   6.3991   O         1 RES1   0.0000
  3762 O1      12.0170   9.3561   4.2731   O         1 RES1   0.0000
  3763 O1      16.4900   1.3161   4.2731   O         1 RES1   0.0000
  3764 O1      12.0170   1.3161   6.3991   O         1 RES1   0.0000
  3775 O1      24.2481   0.7472   7.5423   O         1 RES1   0.0000
  3776 O1      22.0937   9.9250   7.5423   O         1 RES1   0.0000
  3777 O1      22.0937   0.7472   3.1299   O         1 RES1   0.0000
  3778 O1      24.2481   9.9250   3.1299   O         1 RES1   0.0000
  3779 O1      25.3771   6.4133   0.7472   O         1 RES1   0.0000
  3780 O1      25.3771   4.2589   9.9250   O         1 RES1   0.0000
  3781 O1      20.9647   4.2589   0.7472   O         1 RES1   0.0000
  3782 O1      20.9647   6.4133   9.9250   O         1 RES1   0.0000
  3783 O1      18.5820   7.5423   6.4133   O         1 RES1   0.0000
  3784 O1      27.7598   7.5423   4.2589   O         1 RES1   0.0000
  3785 O1      18.5820   3.1299   4.2589   O         1 RES1   0.0000
  3786 O1      27.7598   3.1299   6.4133   O         1 RES1   0.0000
  3787 O1      13.5187   1.3037   8.1790   O         1 RES1   0.0000
  3788 O1      14.9883   9.3685   8.1790   O         1 RES1   0.0000
  3789 O1      14.9883   1.3037   2.4932   O         1 RES1   0.0000
  3790 O1      13.5187   9.3685   2.4932   O         1 RES1   0.0000
  3803 O1      17.0964   4.6013   0.4511   O         1 RES1   0.0000
  3811 C1      15.8515   4.2500   0.4494   C         1 RES1   0.0000
  3812 C1      12.6555   6.4222   0.4494   C         1 RES1   0.0000
  3829 C1      15.3396   9.3668   6.9341   C         1 RES1   0.0000
  3830 C1      13.1674   9.3668   3.7381   C         1 RES1   0.0000
  3831 C1      15.3396   1.3054   3.7381   C         1 RES1   0.0000
  3832 C1      13.1674   1.3054   6.9341   C         1 RES1   0.0000
  3835 C2      14.8920   5.4342   0.4440   C         1 RES1   0.0000
  3836 C2      13.6150   5.2380   0.4440   C         1 RES1   0.0000
  3853 C2      14.1554   9.3614   5.9746   C         1 RES1   0.0000
  3854 C2      14.3516   9.3614   4.6976   C         1 RES1   0.0000
  3855 C2      14.1554   1.3108   4.6976   C         1 RES1   0.0000
  3856 C2      14.3516   1.3108   5.9746   C         1 RES1   0.0000
  3859 H       15.2255   6.3027   0.4422   H         1 RES1   0.0000
  3860 H       13.2815   4.3695   0.4422   H         1 RES1   0.0000
  3877 H       13.2869   9.3596   6.3081   H         1 RES1   0.0000
  3878 H       15.2201   9.3596   4.3641   H         1 RES1   0.0000
  3879 H       13.2869   1.3126   4.3641   H         1 RES1   0.0000
  3880 H       15.2201   1.3126   6.3081   H         1 RES1   0.0000
  3893 C1      24.2303   3.7345   9.7948   C         1 RES1   0.0000
  3894 C1      22.1115   6.9377   9.7948   C         1 RES1   0.0000
  3895 C1      22.1115   3.7345   0.8774   C         1 RES1   0.0000
  3896 C1      24.2303   6.9377   0.8774   C         1 RES1   0.0000
  3897 C1      27.6296   6.3955   3.7345   C         1 RES1   0.0000
  3898 C1      27.6296   4.2767   6.9377   C         1 RES1   0.0000
  3899 C1      18.7122   4.2767   3.7345   C         1 RES1   0.0000
  3900 C1      18.7122   6.3955   6.9377   C         1 RES1   0.0000
  3901 C1      21.5693   9.7948   6.3955   C         1 RES1   0.0000
  3902 C1      24.7725   9.7948   4.2767   C         1 RES1   0.0000
  3903 C1      21.5693   0.8774   4.2767   C         1 RES1   0.0000
  3904 C1      24.7725   0.8774   6.3955   C         1 RES1   0.0000
  3917 C2      23.0514   4.6851   9.7930   C         1 RES1   0.0000
  3918 C2      23.2904   5.9871   9.7930   C         1 RES1   0.0000
  3919 C2      23.2904   4.6851   0.8792   C         1 RES1   0.0000
  3920 C2      23.0514   5.9871   0.8792   C         1 RES1   0.0000
  3921 C2      27.6278   5.2166   4.6851   C         1 RES1   0.0000
  3922 C2      27.6278   5.4556   5.9871   C         1 RES1   0.0000
  3923 C2      18.7140   5.4556   4.6851   C         1 RES1   0.0000
  3924 C2      18.7140   5.2166   5.9871   C         1 RES1   0.0000
  3925 C2      22.5199   9.7930   5.2166   C         1 RES1   0.0000
  3926 C2      23.8219   9.7930   5.4556   C         1 RES1   0.0000
  3927 C2      22.5199   0.8792   5.4556   C         1 RES1   0.0000
  3928 C2      23.8219   0.8792   5.2166   C         1 RES1   0.0000
  3941 H       22.1793   4.3623   9.7930   H         1 RES1   0.0000
  3942 H       24.1625   6.3099   9.7930   H         1 RES1   0.0000
  3943 H       24.1625   4.3623   0.8792   H         1 RES1   0.0000
  3944 H       22.1793   6.3099   0.8792   H         1 RES1   0.0000
  3945 H       27.6278   4.3445   4.3623   H         1 RES1   0.0000
  3946 H       27.6278   6.3277   6.3099   H         1 RES1   0.0000
  3947 H       18.7140   6.3277   4.3623   H         1 RES1   0.0000
  3948 H       18.7140   4.3445   6.3099   H         1 RES1   0.0000
  3949 H       22.1971   9.7930   4.3445   H         1 RES1   0.0000
  3950 H       24.1447   9.7930   6.3277   H         1 RES1   0.0000
  3951 H       22.1971   0.8792   6.3277   H         1 RES1   0.0000
  3952 H       24.1447   0.8792   4.3445   H         1 RES1   0.0000
  3953 O2      17.3478   8.1593   8.6409   O         1 RES1   0.0000
  3954 O2      17.3478   2.5129   2.0313   O         1 RES1   0.0000
  4001 O2      26.2296   2.2774   8.3948   O         1 RES1   0.0000
  4002 O2      20.1122   8.3948   8.3948   O         1 RES1   0.0000
  4003 O2      20.1122   2.2774   2.2774   O         1 RES1   0.0000
  4004 O2      26.2296   8.3948   2.2774   O         1 RES1   0.0000
  4008 Zr      16.2537   9.5963  10.0067   Z         1 RES1   0.0000
  4010 Zr      30.0881   9.5963   0.6655   Z         1 RES1   0.0000
  4016 Zr      18.5003  12.2533   9.5963   Z         1 RES1   0.0000
  4020 Zr      27.4311   0.6655  12.2533   Z         1 RES1   0.0000
  4024 Zr      21.1707   9.9933   9.5829   Z         1 RES1   0.0000
  4025 Zr      25.1711   9.9933   1.0893   Z         1 RES1   0.0000
  4027 Zr      27.4177   3.3359   9.9933   Z         1 RES1   0.0000
  4030 Zr      18.9241   7.3363   9.9933   Z         1 RES1   0.0000
  4034 Zr      27.8281   9.5829   3.3359   Z         1 RES1   0.0000
  4036 Zr      27.8281   1.0893   7.3363   Z         1 RES1   0.0000
  4038 O1      13.5223  11.4267   0.7347   O         1 RES1   0.0000
  4061 O1      23.9057   0.4511  11.4106   O         1 RES1   0.0000
  4063 O1      29.2454   6.0709   0.4511   O         1 RES1   0.0000
  4065 O1      18.2859  11.4106   6.0709   O         1 RES1   0.0000
  4066 O1      10.2211  11.4106   4.6013   O         1 RES1   0.0000
  4069 O2      28.9940   8.1593   2.0313   O         1 RES1   0.0000
  4070 O2      19.8661  11.1592   8.1593   O         1 RES1   0.0000
  4074 O2      25.9941   2.0313  11.1592   O         1 RES1   0.0000
  4082 O2      17.0767  10.9487   8.4304   O         1 RES1   0.0000
  4083 O2      11.4303  10.9487   2.2418   O         1 RES1   0.0000
  4119 Zr      16.2537   1.0759  18.5003   Z         1 RES1   0.0000
  4123 Zr      18.9107   0.6655  16.2537   Z         1 RES1   0.0000
  4124 Zr      25.1711   0.6789  27.4177   Z         1 RES1   0.0000
  4126 Zr      21.1707   0.6789  18.9241   Z         1 RES1   0.0000
  4128 Zr      27.4177   7.3363  18.5137   Z         1 RES1   0.0000
  4129 Zr      18.9241   3.3359  18.5137   Z         1 RES1   0.0000
  4130 Zr      18.5137   9.5829  25.1711   Z         1 RES1   0.0000
  4131 Zr      18.5137   1.0893  21.1707   Z         1 RES1   0.0000
  4139 O1      17.0803   0.7347  14.9847   O         1 RES1   0.0000
  4140 O1      23.9021   2.5093  27.4869   O         1 RES1   0.0000
  4141 O1      22.4397   8.1629  27.4869   O         1 RES1   0.0000
  4142 O1      22.4397   2.5093  18.8549   O         1 RES1   0.0000
  4143 O1      23.9021   8.1629  18.8549   O         1 RES1   0.0000
  4144 O1      27.4869   6.0673  20.3441   O         1 RES1   0.0000
  4145 O1      27.4869   4.6049  25.9977   O         1 RES1   0.0000
  4146 O1      18.8549   4.6049  20.3441   O         1 RES1   0.0000
  4147 O1      18.8549   6.0673  25.9977   O         1 RES1   0.0000
  4148 O1      20.3441   9.6521  23.9021   O         1 RES1   0.0000
  4149 O1      25.9977   9.6521  22.4397   O         1 RES1   0.0000
  4150 O1      20.3441   1.0201  22.4397   O         1 RES1   0.0000
  4151 O1      25.9977   1.0201  23.9021   O         1 RES1   0.0000
  4152 O1      13.1905   3.0996  10.2335   O         1 RES1   0.0000
  4153 O1      15.3165   7.5726  10.2335   O         1 RES1   0.0000
  4154 O1      15.3165   3.0996  18.2735   O         1 RES1   0.0000
  4155 O1      13.1905   7.5726  18.2735   O         1 RES1   0.0000
  4162 O1      20.9344   0.4387  15.3165   O         1 RES1   0.0000
  4163 O1      25.4074   0.4387  13.1905   O         1 RES1   0.0000
  4168 O1      27.1909   6.3991  16.4900   O         1 RES1   0.0000
  4169 O1      27.1909   4.2731  12.0170   O         1 RES1   0.0000
  4170 O1      19.1509   4.2731  16.4900   O         1 RES1   0.0000
  4171 O1      19.1509   6.3991  12.0170   O         1 RES1   0.0000
  4172 O1      16.4900   9.3561  24.2339   O         1 RES1   0.0000
  4173 O1      12.0170   9.3561  22.1079   O         1 RES1   0.0000
  4174 O1      16.4900   1.3161  22.1079   O         1 RES1   0.0000
  4175 O1      12.0170   1.3161  24.2339   O         1 RES1   0.0000
  4176 O1      13.1763   1.0076  12.0473   O         1 RES1   0.0000
  4178 O1      15.3307   1.0076  16.4597   O         1 RES1   0.0000
  4184 O1      24.2481   0.7472  25.3771   O         1 RES1   0.0000
  4185 O1      22.0937   9.9250  25.3771   O         1 RES1   0.0000
  4186 O1      22.0937   0.7472  20.9647   O         1 RES1   0.0000
  4187 O1      24.2481   9.9250  20.9647   O         1 RES1   0.0000
  4188 O1      25.3771   6.4133  18.5820   O         1 RES1   0.0000
  4189 O1      25.3771   4.2589  27.7598   O         1 RES1   0.0000
  4190 O1      20.9647   4.2589  18.5820   O         1 RES1   0.0000
  4191 O1      20.9647   6.4133  27.7598   O         1 RES1   0.0000
  4192 O1      18.5820   7.5423  24.2481   O         1 RES1   0.0000
  4193 O1      27.7598   7.5423  22.0937   O         1 RES1   0.0000
  4194 O1      18.5820   3.1299  22.0937   O         1 RES1   0.0000
  4195 O1      27.7598   3.1299  24.2481   O         1 RES1   0.0000
  4196 O1      13.5187   1.3037  26.0138   O         1 RES1   0.0000
  4197 O1      14.9883   9.3685  26.0138   O         1 RES1   0.0000
  4198 O1      14.9883   1.3037  20.3280   O         1 RES1   0.0000
  4199 O1      13.5187   9.3685  20.3280   O         1 RES1   0.0000
  4204 O1      19.1385   8.1790  13.5187   O         1 RES1   0.0000
  4205 O1      27.2033   8.1790  14.9883   O         1 RES1   0.0000
  4206 O1      19.1385   2.4932  14.9883   O         1 RES1   0.0000
  4207 O1      27.2033   2.4932  13.5187   O         1 RES1   0.0000
  4208 O1      22.4361   0.4511  17.0964   O         1 RES1   0.0000
  4210 O1      17.0964   4.6013  18.2859   O         1 RES1   0.0000
  4211 O1      17.0964   6.0709  10.2211   O         1 RES1   0.0000
  4216 C1      12.6555   4.2500  10.2228   C         1 RES1   0.0000
  4217 C1      15.8515   6.4222  10.2228   C         1 RES1   0.0000
  4218 C1      15.8515   4.2500  18.2842   C         1 RES1   0.0000
  4219 C1      12.6555   6.4222  18.2842   C         1 RES1   0.0000
  4226 C1      22.0848   0.4494  15.8515   C         1 RES1   0.0000
  4227 C1      24.2570   0.4494  12.6555   C         1 RES1   0.0000
  4232 C1      27.2016   6.9341  15.3396   C         1 RES1   0.0000
  4233 C1      27.2016   3.7381  13.1674   C         1 RES1   0.0000
  4234 C1      19.1402   3.7381  15.3396   C         1 RES1   0.0000
  4235 C1      19.1402   6.9341  13.1674   C         1 RES1   0.0000
  4236 C1      15.3396   9.3668  24.7689   C         1 RES1   0.0000
  4237 C1      13.1674   9.3668  21.5729   C         1 RES1   0.0000
  4238 C1      15.3396   1.3054  21.5729   C         1 RES1   0.0000
  4239 C1      13.1674   1.3054  24.7689   C         1 RES1   0.0000
  4240 C2      13.6150   5.4342  10.2282   C         1 RES1   0.0000
  4241 C2      14.8920   5.2380  10.2282   C         1 RES1   0.0000
  4242 C2      14.8920   5.4342  18.2788   C         1 RES1   0.0000
  4243 C2      13.6150   5.2380  18.2788   C         1 RES1   0.0000
  4250 C2      23.2690   0.4440  14.8920   C         1 RES1   0.0000
  4251 C2      23.0728   0.4440  13.6150   C         1 RES1   0.0000
  4256 C2      27.1962   5.9746  14.1554   C         1 RES1   0.0000
  4257 C2      27.1962   4.6976  14.3516   C         1 RES1   0.0000
  4258 C2      19.1456   4.6976  14.1554   C         1 RES1   0.0000
  4259 C2      19.1456   5.9746  14.3516   C         1 RES1   0.0000
  4260 C2      14.1554   9.3614  23.8094   C         1 RES1   0.0000
  4261 C2      14.3516   9.3614  22.5324   C         1 RES1   0.0000
  4262 C2      14.1554   1.3108  22.5324   C         1 RES1   0.0000
  4263 C2      14.3516   1.3108  23.8094   C         1 RES1   0.0000
  4264 H       13.2815   6.3027  10.2300   H         1 RES1   0.0000
  4265 H       15.2255   4.3695  10.2300   H         1 RES1   0.0000
  4266 H       15.2255   6.3027  18.2770   H         1 RES1   0.0000
  4267 H       13.2815   4.3695  18.2770   H         1 RES1   0.0000
  4274 H       24.1375   0.4422  15.2255   H         1 RES1   0.0000
  4275 H       22.2043   0.4422  13.2815   H         1 RES1   0.0000
  4280 H       27.1944   6.3081  13.2869   H         1 RES1   0.0000
  4281 H       27.1944   4.3641  15.2201   H         1 RES1   0.0000
  4282 H       19.1474   4.3641  13.2869   H         1 RES1   0.0000
  4283 H       19.1474   6.3081  15.2201   H         1 RES1   0.0000
  4284 H       13.2869   9.3596  24.1429   H         1 RES1   0.0000
  4285 H       15.2201   9.3596  22.1989   H         1 RES1   0.0000
  4286 H       13.2869   1.3126  22.1989   H         1 RES1   0.0000
  4287 H       15.2201   1.3126  24.1429   H         1 RES1   0.0000
  4298 C1      15.8551   0.8774  15.3129   C         1 RES1   0.0000
  4299 C1      12.6519   0.8774  13.1941   C         1 RES1   0.0000
  4300 C1      24.2303   3.7345  27.6296   C         1 RES1   0.0000
  4301 C1      22.1115   6.9377  27.6296   C         1 RES1   0.0000
  4302 C1      22.1115   3.7345  18.7122   C         1 RES1   0.0000
  4303 C1      24.2303   6.9377  18.7122   C         1 RES1   0.0000
  4304 C1      27.6296   6.3955  21.5693   C         1 RES1   0.0000
  4305 C1      27.6296   4.2767  24.7725   C         1 RES1   0.0000
  4306 C1      18.7122   4.2767  21.5693   C         1 RES1   0.0000
  4307 C1      18.7122   6.3955  24.7725   C         1 RES1   0.0000
  4308 C1      21.5693   9.7948  24.2303   C         1 RES1   0.0000
  4309 C1      24.7725   9.7948  22.1115   C         1 RES1   0.0000
  4310 C1      21.5693   0.8774  22.1115   C         1 RES1   0.0000
  4311 C1      24.7725   0.8774  24.2303   C         1 RES1   0.0000
  4322 C2      14.9045   0.8756  14.1340   C         1 RES1   0.0000
  4323 C2      13.6025   0.8756  14.3730   C         1 RES1   0.0000
  4324 C2      23.0514   4.6851  27.6278   C         1 RES1   0.0000
  4325 C2      23.2904   5.9871  27.6278   C         1 RES1   0.0000
  4326 C2      23.2904   4.6851  18.7140   C         1 RES1   0.0000
  4327 C2      23.0514   5.9871  18.7140   C         1 RES1   0.0000
  4328 C2      27.6278   5.2166  22.5199   C         1 RES1   0.0000
  4329 C2      27.6278   5.4556  23.8219   C         1 RES1   0.0000
  4330 C2      18.7140   5.4556  22.5199   C         1 RES1   0.0000
  4331 C2      18.7140   5.2166  23.8219   C         1 RES1   0.0000
  4332 C2      22.5199   9.7930  23.0514   C         1 RES1   0.0000
  4333 C2      23.8219   9.7930  23.2904   C         1 RES1   0.0000
  4334 C2      22.5199   0.8792  23.2904   C         1 RES1   0.0000
  4335 C2      23.8219   0.8792  23.0514   C         1 RES1   0.0000
  4346 H       15.2273   0.8756  13.2619   H         1 RES1   0.0000
  4347 H       13.2797   0.8756  15.2451   H         1 RES1   0.0000
  4348 H       22.1793   4.3623  27.6278   H         1 RES1   0.0000
  4349 H       24.1625   6.3099  27.6278   H         1 RES1   0.0000
  4350 H       24.1625   4.3623  18.7140   H         1 RES1   0.0000
  4351 H       22.1793   6.3099  18.7140   H         1 RES1   0.0000
  4352 H       27.6278   4.3445  22.1971   H         1 RES1   0.0000
  4353 H       27.6278   6.3277  24.1447   H         1 RES1   0.0000
  4354 H       18.7140   6.3277  22.1971   H         1 RES1   0.0000
  4355 H       18.7140   4.3445  24.1447   H         1 RES1   0.0000
  4356 H       22.1971   9.7930  22.1793   H         1 RES1   0.0000
  4357 H       24.1447   9.7930  24.1625   H         1 RES1   0.0000
  4358 H       22.1971   0.8792  24.1625   H         1 RES1   0.0000
  4359 H       24.1447   0.8792  22.1793   H         1 RES1   0.0000
  4360 O2      17.3478   8.1593  26.4757   O         1 RES1   0.0000
  4361 O2      17.3478   2.5129  19.8661   O         1 RES1   0.0000
  4366 O2      20.3477   8.6409  11.1592   O         1 RES1   0.0000
  4367 O2      25.9941   8.6409  17.3478   O         1 RES1   0.0000
  4368 O2      20.3477   2.0313  17.3478   O         1 RES1   0.0000
  4371 O2      17.5583   2.2418  17.0767   O         1 RES1   0.0000
  4372 O2      17.5583   8.4304  11.4303   O         1 RES1   0.0000
  4400 O2      26.2296   2.2774  26.2296   O         1 RES1   0.0000
  4401 O2      20.1122   8.3948  26.2296   O         1 RES1   0.0000
  4402 O2      20.1122   2.2774  20.1122   O         1 RES1   0.0000
  4403 O2      26.2296   8.3948  20.1122   O         1 RES1   0.0000
  4404 Zr      30.0881   1.0759  10.0067   Z         1 RES1   0.0000
  4406 Zr      16.2537   9.5963  27.8415   Z         1 RES1   0.0000
  4408 Zr      30.0881   9.5963  18.5003   Z         1 RES1   0.0000
  4411 Zr      18.5003  12.2533  27.4311   Z         1 RES1   0.0000
  4413 Zr      18.9107  10.0067  12.2533   Z         1 RES1   0.0000
  4414 Zr      27.4311  10.0067  16.2537   Z         1 RES1   0.0000
  4415 Zr      27.4311   0.6655  30.0881   Z         1 RES1   0.0000
  4416 Zr      21.1707   9.9933  27.4177   Z         1 RES1   0.0000
  4417 Zr      25.1711   9.9933  18.9241   Z         1 RES1   0.0000
  4419 Zr      27.4177   3.3359  27.8281   Z         1 RES1   0.0000
  4421 Zr      18.9241   7.3363  27.8281   Z         1 RES1   0.0000
  4424 Zr      27.8281   9.5829  21.1707   Z         1 RES1   0.0000
  4425 Zr      27.8281   1.0893  25.1711   Z         1 RES1   0.0000
  4426 O1      14.9847  11.4267   9.9375   O         1 RES1   0.0000
  4427 O1      13.5223  11.4267  18.5695   O         1 RES1   0.0000
  4431 O1      29.2615   0.7347  13.5223   O         1 RES1   0.0000
  4434 O1      15.3307   9.6646  12.0473   O         1 RES1   0.0000
  4435 O1      13.1763   9.6646  16.4597   O         1 RES1   0.0000
  4444 O1      23.9057   0.4511  29.2454   O         1 RES1   0.0000
  4446 O1      29.2454   6.0709  18.2859   O         1 RES1   0.0000
  4447 O1      29.2454   4.6013  10.2211   O         1 RES1   0.0000
  4448 O1      18.2859  11.4106  23.9057   O         1 RES1   0.0000
  4449 O1      10.2211  11.4106  22.4361   O         1 RES1   0.0000
  4450 O2      28.9940   2.5129   8.6409   O         1 RES1   0.0000
  4451 O2      28.9940   8.1593  19.8661   O         1 RES1   0.0000
  4452 O2      19.8661  11.1592  25.9941   O         1 RES1   0.0000
  4455 O2      25.9941   2.0313  28.9940   O         1 RES1   0.0000
  4459 O2      28.7835   8.4304  17.0767   O         1 RES1   0.0000
  4460 O2      28.7835   2.2418  11.4303   O         1 RES1   0.0000
  4462 O2      17.0767  10.9487  26.2652   O         1 RES1   0.0000
  4463 O2      11.4303  10.9487  20.0766   O         1 RES1   0.0000
  4486 O2      17.3122  11.1948  11.1948   O         1 RES1   0.0000
  4490 Zr      16.2537   1.0759  36.3351   Z         1 RES1   0.0000
  4494 Zr      18.9107   0.6655  34.0885   Z         1 RES1   0.0000
  4497 Zr      21.1707   0.6789  36.7589   Z         1 RES1   0.0000
  4499 Zr      27.4177   7.3363  36.3485   Z         1 RES1   0.0000
  4500 Zr      18.9241   3.3359  36.3485   Z         1 RES1   0.0000
  4510 O1      17.0803   0.7347  32.8195   O         1 RES1   0.0000
  4513 O1      22.4397   2.5093  36.6897   O         1 RES1   0.0000
  4514 O1      23.9021   8.1629  36.6897   O         1 RES1   0.0000
  4523 O1      13.1905   3.0996  28.0683   O         1 RES1   0.0000
  4524 O1      15.3165   7.5726  28.0683   O         1 RES1   0.0000
  4525 O1      15.3165   3.0996  36.1083   O         1 RES1   0.0000
  4526 O1      13.1905   7.5726  36.1083   O         1 RES1   0.0000
  4533 O1      20.9344   0.4387  33.1513   O         1 RES1   0.0000
  4534 O1      25.4074   0.4387  31.0253   O         1 RES1   0.0000
  4539 O1      27.1909   6.3991  34.3248   O         1 RES1   0.0000
  4540 O1      27.1909   4.2731  29.8518   O         1 RES1   0.0000
  4541 O1      19.1509   4.2731  34.3248   O         1 RES1   0.0000
  4542 O1      19.1509   6.3991  29.8518   O         1 RES1   0.0000
  4547 O1      13.1763   1.0076  29.8821   O         1 RES1   0.0000
  4549 O1      15.3307   1.0076  34.2945   O         1 RES1   0.0000
  4559 O1      25.3771   6.4133  36.4168   O         1 RES1   0.0000
  4561 O1      20.9647   4.2589  36.4168   O         1 RES1   0.0000
  4575 O1      19.1385   8.1790  31.3535   O         1 RES1   0.0000
  4576 O1      27.2033   8.1790  32.8231   O         1 RES1   0.0000
  4577 O1      19.1385   2.4932  32.8231   O         1 RES1   0.0000
  4578 O1      27.2033   2.4932  31.3535   O         1 RES1   0.0000
  4579 O1      22.4361   0.4511  34.9312   O         1 RES1   0.0000
  4581 O1      17.0964   4.6013  36.1207   O         1 RES1   0.0000
  4582 O1      17.0964   6.0709  28.0559   O         1 RES1   0.0000
  4587 C1      12.6555   4.2500  28.0576   C         1 RES1   0.0000
  4588 C1      15.8515   6.4222  28.0576   C         1 RES1   0.0000
  4589 C1      15.8515   4.2500  36.1190   C         1 RES1   0.0000
  4590 C1      12.6555   6.4222  36.1190   C         1 RES1   0.0000
  4597 C1      22.0848   0.4494  33.6863   C         1 RES1   0.0000
  4598 C1      24.2570   0.4494  30.4903   C         1 RES1   0.0000
  4603 C1      27.2016   6.9341  33.1744   C         1 RES1   0.0000
  4604 C1      27.2016   3.7381  31.0022   C         1 RES1   0.0000
  4605 C1      19.1402   3.7381  33.1744   C         1 RES1   0.0000
  4606 C1      19.1402   6.9341  31.0022   C         1 RES1   0.0000
  4611 C2      13.6150   5.4342  28.0630   C         1 RES1   0.0000
  4612 C2      14.8920   5.2380  28.0630   C         1 RES1   0.0000
  4613 C2      14.8920   5.4342  36.1136   C         1 RES1   0.0000
  4614 C2      13.6150   5.2380  36.1136   C         1 RES1   0.0000
  4621 C2      23.2690   0.4440  32.7268   C         1 RES1   0.0000
  4622 C2      23.0728   0.4440  31.4498   C         1 RES1   0.0000
  4627 C2      27.1962   5.9746  31.9902   C         1 RES1   0.0000
  4628 C2      27.1962   4.6976  32.1864   C         1 RES1   0.0000
  4629 C2      19.1456   4.6976  31.9902   C         1 RES1   0.0000
  4630 C2      19.1456   5.9746  32.1864   C         1 RES1   0.0000
  4635 H       13.2815   6.3027  28.0648   H         1 RES1   0.0000
  4636 H       15.2255   4.3695  28.0648   H         1 RES1   0.0000
  4637 H       15.2255   6.3027  36.1118   H         1 RES1   0.0000
  4638 H       13.2815   4.3695  36.1118   H         1 RES1   0.0000
  4645 H       24.1375   0.4422  33.0603   H         1 RES1   0.0000
  4646 H       22.2043   0.4422  31.1163   H         1 RES1   0.0000
  4651 H       27.1944   6.3081  31.1217   H         1 RES1   0.0000
  4652 H       27.1944   4.3641  33.0549   H         1 RES1   0.0000
  4653 H       19.1474   4.3641  31.1217   H         1 RES1   0.0000
  4654 H       19.1474   6.3081  33.0549   H         1 RES1   0.0000
  4669 C1      15.8551   0.8774  33.1477   C         1 RES1   0.0000
  4670 C1      12.6519   0.8774  31.0289   C         1 RES1   0.0000
  4673 C1      22.1115   3.7345  36.5470   C         1 RES1   0.0000
  4674 C1      24.2303   6.9377  36.5470   C         1 RES1   0.0000
  4693 C2      14.9045   0.8756  31.9688   C         1 RES1   0.0000
  4694 C2      13.6025   0.8756  32.2078   C         1 RES1   0.0000
  4697 C2      23.2904   4.6851  36.5488   C         1 RES1   0.0000
  4698 C2      23.0514   5.9871  36.5488   C         1 RES1   0.0000
  4717 H       15.2273   0.8756  31.0967   H         1 RES1   0.0000
  4718 H       13.2797   0.8756  33.0799   H         1 RES1   0.0000
  4721 H       24.1625   4.3623  36.5488   H         1 RES1   0.0000
  4722 H       22.1793   6.3099  36.5488   H         1 RES1   0.0000
  4738 O2      20.3477   8.6409  28.9940   O         1 RES1   0.0000
  4739 O2      25.9941   8.6409  35.1826   O         1 RES1   0.0000
  4740 O2      20.3477   2.0313  35.1826   O         1 RES1   0.0000
  4743 O2      17.5583   2.2418  34.9115   O         1 RES1   0.0000
  4744 O2      17.5583   8.4304  29.2651   O         1 RES1   0.0000
  4778 Zr      30.0881   1.0759  27.8415   Z         1 RES1   0.0000
  4782 Zr      30.0881   9.5963  36.3351   Z         1 RES1   0.0000
  4787 Zr      18.9107  10.0067  30.0881   Z         1 RES1   0.0000
  4788 Zr      27.4311  10.0067  34.0885   Z         1 RES1   0.0000
  4791 Zr      25.1711   9.9933  36.7589   Z         1 RES1   0.0000
  4800 O1      14.9847  11.4267  27.7723   O         1 RES1   0.0000
  4801 O1      13.5223  11.4267  36.4043   O         1 RES1   0.0000
  4805 O1      29.2615   0.7347  31.3571   O         1 RES1   0.0000
  4808 O1      15.3307   9.6646  29.8821   O         1 RES1   0.0000
  4809 O1      13.1763   9.6646  34.2945   O         1 RES1   0.0000
  4820 O1      29.2454   6.0709  36.1207   O         1 RES1   0.0000
  4821 O1      29.2454   4.6013  28.0559   O         1 RES1   0.0000
  4824 O2      28.9940   2.5129  26.4757   O         1 RES1   0.0000
  4833 O2      28.7835   8.4304  34.9115   O         1 RES1   0.0000
  4834 O2      28.7835   2.2418  29.2651   O         1 RES1   0.0000
  4862 O2      17.3122  11.1948  29.0296   O         1 RES1   0.0000
  4867 Zr      16.2537  18.9107   0.6655   Z         1 RES1   0.0000
  4868 Zr      18.5003  16.2537   1.0759   Z         1 RES1   0.0000
  4871 Zr      25.1711  18.5137   9.5829   Z         1 RES1   0.0000
  4872 Zr      21.1707  18.5137   1.0893   Z         1 RES1   0.0000
  4873 Zr      27.4177  25.1711   0.6789   Z         1 RES1   0.0000
  4875 Zr      18.9241  21.1707   0.6789   Z         1 RES1   0.0000
  4877 Zr      18.5137  27.4177   7.3363   Z         1 RES1   0.0000
  4878 Zr      18.5137  18.9241   3.3359   Z         1 RES1   0.0000
  4880 O1      14.9847  17.0803   0.7347   O         1 RES1   0.0000
  4887 O1      23.9021  20.3441   9.6521   O         1 RES1   0.0000
  4888 O1      22.4397  25.9977   9.6521   O         1 RES1   0.0000
  4889 O1      22.4397  20.3441   1.0201   O         1 RES1   0.0000
  4890 O1      23.9021  25.9977   1.0201   O         1 RES1   0.0000
  4891 O1      27.4869  23.9021   2.5093   O         1 RES1   0.0000
  4892 O1      27.4869  22.4397   8.1629   O         1 RES1   0.0000
  4893 O1      18.8549  22.4397   2.5093   O         1 RES1   0.0000
  4894 O1      18.8549  23.9021   8.1629   O         1 RES1   0.0000
  4895 O1      20.3441  27.4869   6.0673   O         1 RES1   0.0000
  4896 O1      25.9977  27.4869   4.6049   O         1 RES1   0.0000
  4897 O1      20.3441  18.8549   4.6049   O         1 RES1   0.0000
  4898 O1      25.9977  18.8549   6.0673   O         1 RES1   0.0000
  4901 O1      15.3165  20.9344   0.4387   O         1 RES1   0.0000
  4902 O1      13.1905  25.4074   0.4387   O         1 RES1   0.0000
  4903 O1      10.2335  13.1905   3.0996   O         1 RES1   0.0000
  4904 O1      10.2335  15.3165   7.5726   O         1 RES1   0.0000
  4905 O1      18.2735  15.3165   3.0996   O         1 RES1   0.0000
  4906 O1      18.2735  13.1905   7.5726   O         1 RES1   0.0000
  4911 O1      24.2339  16.4900   9.3561   O         1 RES1   0.0000
  4912 O1      22.1079  12.0170   9.3561   O         1 RES1   0.0000
  4913 O1      22.1079  16.4900   1.3161   O         1 RES1   0.0000
  4914 O1      24.2339  12.0170   1.3161   O         1 RES1   0.0000
  4919 O1      16.4900  27.1909   6.3991   O         1 RES1   0.0000
  4920 O1      12.0170  27.1909   4.2731   O         1 RES1   0.0000
  4921 O1      16.4900  19.1509   4.2731   O         1 RES1   0.0000
  4922 O1      12.0170  19.1509   6.3991   O         1 RES1   0.0000
  4925 O1      12.0473  13.1763   1.0076   O         1 RES1   0.0000
  4927 O1      16.4597  15.3307   1.0076   O         1 RES1   0.0000
  4931 O1      24.2481  18.5820   7.5423   O         1 RES1   0.0000
  4932 O1      22.0937  27.7598   7.5423   O         1 RES1   0.0000
  4933 O1      22.0937  18.5820   3.1299   O         1 RES1   0.0000
  4934 O1      24.2481  27.7598   3.1299   O         1 RES1   0.0000
  4935 O1      25.3771  24.2481   0.7472   O         1 RES1   0.0000
  4936 O1      25.3771  22.0937   9.9250   O         1 RES1   0.0000
  4937 O1      20.9647  22.0937   0.7472   O         1 RES1   0.0000
  4938 O1      20.9647  24.2481   9.9250   O         1 RES1   0.0000
  4939 O1      18.5820  25.3771   6.4133   O         1 RES1   0.0000
  4940 O1      27.7598  25.3771   4.2589   O         1 RES1   0.0000
  4941 O1      18.5820  20.9647   4.2589   O         1 RES1   0.0000
  4942 O1      27.7598  20.9647   6.4133   O         1 RES1   0.0000
  4943 O1      13.5187  19.1385   8.1790   O         1 RES1   0.0000
  4944 O1      14.9883  27.2033   8.1790   O         1 RES1   0.0000
  4945 O1      14.9883  19.1385   2.4932   O         1 RES1   0.0000
  4946 O1      13.5187  27.2033   2.4932   O         1 RES1   0.0000
  4947 O1      26.0138  13.5187   1.3037   O         1 RES1   0.0000
  4948 O1      26.0138  14.9883   9.3685   O         1 RES1   0.0000
  4949 O1      20.3280  14.9883   1.3037   O         1 RES1   0.0000
  4950 O1      20.3280  13.5187   9.3685   O         1 RES1   0.0000
  4959 O1      17.0964  22.4361   0.4511   O         1 RES1   0.0000
  4961 O1      18.2859  17.0964   4.6013   O         1 RES1   0.0000
  4962 O1      10.2211  17.0964   6.0709   O         1 RES1   0.0000
  4965 C1      15.8515  22.0848   0.4494   C         1 RES1   0.0000
  4966 C1      12.6555  24.2570   0.4494   C         1 RES1   0.0000
  4967 C1      10.2228  12.6555   4.2500   C         1 RES1   0.0000
  4968 C1      10.2228  15.8515   6.4222   C         1 RES1   0.0000
  4969 C1      18.2842  15.8515   4.2500   C         1 RES1   0.0000
  4970 C1      18.2842  12.6555   6.4222   C         1 RES1   0.0000
  4975 C1      24.7689  15.3396   9.3668   C         1 RES1   0.0000
  4976 C1      21.5729  13.1674   9.3668   C         1 RES1   0.0000
  4977 C1      21.5729  15.3396   1.3054   C         1 RES1   0.0000
  4978 C1      24.7689  13.1674   1.3054   C         1 RES1   0.0000
  4983 C1      15.3396  27.2016   6.9341   C         1 RES1   0.0000
  4984 C1      13.1674  27.2016   3.7381   C         1 RES1   0.0000
  4985 C1      15.3396  19.1402   3.7381   C         1 RES1   0.0000
  4986 C1      13.1674  19.1402   6.9341   C         1 RES1   0.0000
  4989 C2      14.8920  23.2690   0.4440   C         1 RES1   0.0000
  4990 C2      13.6150  23.0728   0.4440   C         1 RES1   0.0000
  4991 C2      10.2282  13.6150   5.4342   C         1 RES1   0.0000
  4992 C2      10.2282  14.8920   5.2380   C         1 RES1   0.0000
  4993 C2      18.2788  14.8920   5.4342   C         1 RES1   0.0000
  4994 C2      18.2788  13.6150   5.2380   C         1 RES1   0.0000
  4999 C2      23.8094  14.1554   9.3614   C         1 RES1   0.0000
  5000 C2      22.5324  14.3516   9.3614   C         1 RES1   0.0000
  5001 C2      22.5324  14.1554   1.3108   C         1 RES1   0.0000
  5002 C2      23.8094  14.3516   1.3108   C         1 RES1   0.0000
  5007 C2      14.1554  27.1962   5.9746   C         1 RES1   0.0000
  5008 C2      14.3516  27.1962   4.6976   C         1 RES1   0.0000
  5009 C2      14.1554  19.1456   4.6976   C         1 RES1   0.0000
  5010 C2      14.3516  19.1456   5.9746   C         1 RES1   0.0000
  5013 H       15.2255  24.1375   0.4422   H         1 RES1   0.0000
  5014 H       13.2815  22.2043   0.4422   H         1 RES1   0.0000
  5015 H       10.2300  13.2815   6.3027   H         1 RES1   0.0000
  5016 H       10.2300  15.2255   4.3695   H         1 RES1   0.0000
  5017 H       18.2770  15.2255   6.3027   H         1 RES1   0.0000
  5018 H       18.2770  13.2815   4.3695   H         1 RES1   0.0000
  5023 H       24.1429  13.2869   9.3596   H         1 RES1   0.0000
  5024 H       22.1989  15.2201   9.3596   H         1 RES1   0.0000
  5025 H       22.1989  13.2869   1.3126   H         1 RES1   0.0000
  5026 H       24.1429  15.2201   1.3126   H         1 RES1   0.0000
  5031 H       13.2869  27.1944   6.3081   H         1 RES1   0.0000
  5032 H       15.2201  27.1944   4.3641   H         1 RES1   0.0000
  5033 H       13.2869  19.1474   4.3641   H         1 RES1   0.0000
  5034 H       15.2201  19.1474   6.3081   H         1 RES1   0.0000
  5037 C1      15.3129  15.8551   0.8774   C         1 RES1   0.0000
  5038 C1      13.1941  12.6519   0.8774   C         1 RES1   0.0000
  5047 C1      24.2303  21.5693   9.7948   C         1 RES1   0.0000
  5048 C1      22.1115  24.7725   9.7948   C         1 RES1   0.0000
  5049 C1      22.1115  21.5693   0.8774   C         1 RES1   0.0000
  5050 C1      24.2303  24.7725   0.8774   C         1 RES1   0.0000
  5051 C1      27.6296  24.2303   3.7345   C         1 RES1   0.0000
  5052 C1      27.6296  22.1115   6.9377   C         1 RES1   0.0000
  5053 C1      18.7122  22.1115   3.7345   C         1 RES1   0.0000
  5054 C1      18.7122  24.2303   6.9377   C         1 RES1   0.0000
  5055 C1      21.5693  27.6296   6.3955   C         1 RES1   0.0000
  5056 C1      24.7725  27.6296   4.2767   C         1 RES1   0.0000
  5057 C1      21.5693  18.7122   4.2767   C         1 RES1   0.0000
  5058 C1      24.7725  18.7122   6.3955   C         1 RES1   0.0000
  5061 C2      14.1340  14.9045   0.8756   C         1 RES1   0.0000
  5062 C2      14.3730  13.6025   0.8756   C         1 RES1   0.0000
  5071 C2      23.0514  22.5199   9.7930   C         1 RES1   0.0000
  5072 C2      23.2904  23.8219   9.7930   C         1 RES1   0.0000
  5073 C2      23.2904  22.5199   0.8792   C         1 RES1   0.0000
  5074 C2      23.0514  23.8219   0.8792   C         1 RES1   0.0000
  5075 C2      27.6278  23.0514   4.6851   C         1 RES1   0.0000
  5076 C2      27.6278  23.2904   5.9871   C         1 RES1   0.0000
  5077 C2      18.7140  23.2904   4.6851   C         1 RES1   0.0000
  5078 C2      18.7140  23.0514   5.9871   C         1 RES1   0.0000
  5079 C2      22.5199  27.6278   5.2166   C         1 RES1   0.0000
  5080 C2      23.8219  27.6278   5.4556   C         1 RES1   0.0000
  5081 C2      22.5199  18.7140   5.4556   C         1 RES1   0.0000
  5082 C2      23.8219  18.7140   5.2166   C         1 RES1   0.0000
  5085 H       13.2619  15.2273   0.8756   H         1 RES1   0.0000
  5086 H       15.2451  13.2797   0.8756   H         1 RES1   0.0000
  5095 H       22.1793  22.1971   9.7930   H         1 RES1   0.0000
  5096 H       24.1625  24.1447   9.7930   H         1 RES1   0.0000
  5097 H       24.1625  22.1971   0.8792   H         1 RES1   0.0000
  5098 H       22.1793  24.1447   0.8792   H         1 RES1   0.0000
  5099 H       27.6278  22.1793   4.3623   H         1 RES1   0.0000
  5100 H       27.6278  24.1625   6.3099   H         1 RES1   0.0000
  5101 H       18.7140  24.1625   4.3623   H         1 RES1   0.0000
  5102 H       18.7140  22.1793   6.3099   H         1 RES1   0.0000
  5103 H       22.1971  27.6278   4.3445   H         1 RES1   0.0000
  5104 H       24.1447  27.6278   6.3277   H         1 RES1   0.0000
  5105 H       22.1971  18.7140   6.3277   H         1 RES1   0.0000
  5106 H       24.1447  18.7140   4.3445   H         1 RES1   0.0000
  5107 O2      17.3478  25.9941   8.6409   O         1 RES1   0.0000
  5108 O2      17.3478  20.3477   2.0313   O         1 RES1   0.0000
  5109 O2      26.4757  11.1592   2.5129   O         1 RES1   0.0000
  5110 O2      26.4757  17.3478   8.1593   O         1 RES1   0.0000
  5111 O2      19.8661  17.3478   2.5129   O         1 RES1   0.0000
  5122 O2      17.0767  17.5583   2.2418   O         1 RES1   0.0000
  5123 O2      11.4303  17.5583   8.4304   O         1 RES1   0.0000
  5147 O2      26.2296  20.1122   8.3948   O         1 RES1   0.0000
  5148 O2      20.1122  26.2296   8.3948   O         1 RES1   0.0000
  5149 O2      20.1122  20.1122   2.2774   O         1 RES1   0.0000
  5150 O2      26.2296  26.2296   2.2774   O         1 RES1   0.0000
  5152 Zr      16.2537  27.4311  10.0067   Z         1 RES1   0.0000
  5153 Zr      30.0881  27.4311   0.6655   Z         1 RES1   0.0000
  5154 Zr      27.8415  12.2533   1.0759   Z         1 RES1   0.0000
  5156 Zr      27.8415  16.2537   9.5963   Z         1 RES1   0.0000
  5158 Zr      18.5003  30.0881   9.5963   Z         1 RES1   0.0000
  5161 Zr      27.4311  18.5003  12.2533   Z         1 RES1   0.0000
  5164 Zr      21.1707  27.8281   9.5829   Z         1 RES1   0.0000
  5165 Zr      25.1711  27.8281   1.0893   Z         1 RES1   0.0000
  5166 Zr      27.4177  21.1707   9.9933   Z         1 RES1   0.0000
  5167 Zr      18.9241  25.1711   9.9933   Z         1 RES1   0.0000
  5169 Zr      27.8281  27.4177   3.3359   Z         1 RES1   0.0000
  5171 Zr      27.8281  18.9241   7.3363   Z         1 RES1   0.0000
  5173 O1      13.5223  29.2615   0.7347   O         1 RES1   0.0000
  5174 O1       9.9375  14.9847  11.4267   O         1 RES1   0.0000
  5175 O1      18.5695  13.5223  11.4267   O         1 RES1   0.0000
  5182 O1      12.0473  15.3307   9.6646   O         1 RES1   0.0000
  5183 O1      16.4597  13.1763   9.6646   O         1 RES1   0.0000
  5190 O1      23.9057  18.2859  11.4106   O         1 RES1   0.0000
  5191 O1      22.4361  10.2211  11.4106   O         1 RES1   0.0000
  5192 O1      29.2454  23.9057   0.4511   O         1 RES1   0.0000
  5194 O1      18.2859  29.2454   6.0709   O         1 RES1   0.0000
  5195 O1      10.2211  29.2454   4.6013   O         1 RES1   0.0000
  5198 O2      28.9940  25.9941   2.0313   O         1 RES1   0.0000
  5199 O2      19.8661  28.9940   8.1593   O         1 RES1   0.0000
  5200 O2      25.9941  19.8661  11.1592   O         1 RES1   0.0000
  5201 O2      26.2652  17.0767  10.9487   O         1 RES1   0.0000
  5202 O2      20.0766  11.4303  10.9487   O         1 RES1   0.0000
  5206 O2      17.0767  28.7835   8.4304   O         1 RES1   0.0000
  5207 O2      11.4303  28.7835   2.2418   O         1 RES1   0.0000
  5232 Zr      16.2537  18.9107  18.5003   Z         1 RES1   0.0000
  5233 Zr      18.5003  16.2537  18.9107   Z         1 RES1   0.0000
  5234 Zr      18.9107  18.5003  16.2537   Z         1 RES1   0.0000
  5235 Zr      25.1711  18.5137  27.4177   Z         1 RES1   0.0000
  5236 Zr      21.1707  18.5137  18.9241   Z         1 RES1   0.0000
  5237 Zr      27.4177  25.1711  18.5137   Z         1 RES1   0.0000
  5238 Zr      18.9241  21.1707  18.5137   Z         1 RES1   0.0000
  5239 Zr      18.5137  27.4177  25.1711   Z         1 RES1   0.0000
  5240 Zr      18.5137  18.9241  21.1707   Z         1 RES1   0.0000
  5241 O1      13.5223  17.0803   9.9375   O         1 RES1   0.0000
  5242 O1      14.9847  17.0803  18.5695   O         1 RES1   0.0000
  5243 O1       9.9375  13.5223  17.0803   O         1 RES1   0.0000
  5244 O1      18.5695  14.9847  17.0803   O         1 RES1   0.0000
  5245 O1      17.0803   9.9375  13.5223   O         1 RES1   0.0000
  5246 O1      17.0803  18.5695  14.9847   O         1 RES1   0.0000
  5247 O1      23.9021  20.3441  27.4869   O         1 RES1   0.0000
  5248 O1      22.4397  25.9977  27.4869   O         1 RES1   0.0000
  5249 O1      22.4397  20.3441  18.8549   O         1 RES1   0.0000
  5250 O1      23.9021  25.9977  18.8549   O         1 RES1   0.0000
  5251 O1      27.4869  23.9021  20.3441   O         1 RES1   0.0000
  5252 O1      27.4869  22.4397  25.9977   O         1 RES1   0.0000
  5253 O1      18.8549  22.4397  20.3441   O         1 RES1   0.0000
  5254 O1      18.8549  23.9021  25.9977   O         1 RES1   0.0000
  5255 O1      20.3441  27.4869  23.9021   O         1 RES1   0.0000
  5256 O1      25.9977  27.4869  22.4397   O         1 RES1   0.0000
  5257 O1      20.3441  18.8549  22.4397   O         1 RES1   0.0000
  5258 O1      25.9977  18.8549  23.9021   O         1 RES1   0.0000
  5259 O1      13.1905  20.9344  10.2335   O         1 RES1   0.0000
  5260 O1      15.3165  25.4074  10.2335   O         1 RES1   0.0000
  5261 O1      15.3165  20.9344  18.2735   O         1 RES1   0.0000
  5262 O1      13.1905  25.4074  18.2735   O         1 RES1   0.0000
  5263 O1      10.2335  13.1905  20.9344   O         1 RES1   0.0000
  5264 O1      10.2335  15.3165  25.4074   O         1 RES1   0.0000
  5265 O1      18.2735  15.3165  20.9344   O         1 RES1   0.0000
  5266 O1      18.2735  13.1905  25.4074   O         1 RES1   0.0000
  5267 O1      20.9344  10.2335  13.1905   O         1 RES1   0.0000
  5268 O1      25.4074  10.2335  15.3165   O         1 RES1   0.0000
  5269 O1      20.9344  18.2735  15.3165   O         1 RES1   0.0000
  5270 O1      25.4074  18.2735  13.1905   O         1 RES1   0.0000
  5271 O1      24.2339  16.4900  27.1909   O         1 RES1   0.0000
  5272 O1      22.1079  12.0170  27.1909   O         1 RES1   0.0000
  5273 O1      22.1079  16.4900  19.1509   O         1 RES1   0.0000
  5274 O1      24.2339  12.0170  19.1509   O         1 RES1   0.0000
  5275 O1      27.1909  24.2339  16.4900   O         1 RES1   0.0000
  5276 O1      27.1909  22.1079  12.0170   O         1 RES1   0.0000
  5277 O1      19.1509  22.1079  16.4900   O         1 RES1   0.0000
  5278 O1      19.1509  24.2339  12.0170   O         1 RES1   0.0000
  5279 O1      16.4900  27.1909  24.2339   O         1 RES1   0.0000
  5280 O1      12.0170  27.1909  22.1079   O         1 RES1   0.0000
  5281 O1      16.4900  19.1509  22.1079   O         1 RES1   0.0000
  5282 O1      12.0170  19.1509  24.2339   O         1 RES1   0.0000
  5283 O1      13.1763  18.8424  12.0473   O         1 RES1   0.0000
  5284 O1      15.3307  18.8424  16.4597   O         1 RES1   0.0000
  5285 O1      12.0473  13.1763  18.8424   O         1 RES1   0.0000
  5286 O1      16.4597  15.3307  18.8424   O         1 RES1   0.0000
  5287 O1      18.8424  12.0473  13.1763   O         1 RES1   0.0000
  5288 O1      18.8424  16.4597  15.3307   O         1 RES1   0.0000
  5289 O1      24.2481  18.5820  25.3771   O         1 RES1   0.0000
  5290 O1      22.0937  27.7598  25.3771   O         1 RES1   0.0000
  5291 O1      22.0937  18.5820  20.9647   O         1 RES1   0.0000
  5292 O1      24.2481  27.7598  20.9647   O         1 RES1   0.0000
  5293 O1      25.3771  24.2481  18.5820   O         1 RES1   0.0000
  5294 O1      25.3771  22.0937  27.7598   O         1 RES1   0.0000
  5295 O1      20.9647  22.0937  18.5820   O         1 RES1   0.0000
  5296 O1      20.9647  24.2481  27.7598   O         1 RES1   0.0000
  5297 O1      18.5820  25.3771  24.2481   O         1 RES1   0.0000
  5298 O1      27.7598  25.3771  22.0937   O         1 RES1   0.0000
  5299 O1      18.5820  20.9647  22.0937   O         1 RES1   0.0000
  5300 O1      27.7598  20.9647  24.2481   O         1 RES1   0.0000
  5301 O1      13.5187  19.1385  26.0138   O         1 RES1   0.0000
  5302 O1      14.9883  27.2033  26.0138   O         1 RES1   0.0000
  5303 O1      14.9883  19.1385  20.3280   O         1 RES1   0.0000
  5304 O1      13.5187  27.2033  20.3280   O         1 RES1   0.0000
  5305 O1      26.0138  13.5187  19.1385   O         1 RES1   0.0000
  5306 O1      26.0138  14.9883  27.2033   O         1 RES1   0.0000
  5307 O1      20.3280  14.9883  19.1385   O         1 RES1   0.0000
  5308 O1      20.3280  13.5187  27.2033   O         1 RES1   0.0000
  5309 O1      19.1385  26.0138  13.5187   O         1 RES1   0.0000
  5310 O1      27.2033  26.0138  14.9883   O         1 RES1   0.0000
  5311 O1      19.1385  20.3280  14.9883   O         1 RES1   0.0000
  5312 O1      27.2033  20.3280  13.5187   O         1 RES1   0.0000
  5313 O1      22.4361  18.2859  17.0964   O         1 RES1   0.0000
  5314 O1      23.9057  10.2211  17.0964   O         1 RES1   0.0000
  5315 O1      17.0964  22.4361  18.2859   O         1 RES1   0.0000
  5316 O1      17.0964  23.9057  10.2211   O         1 RES1   0.0000
  5317 O1      18.2859  17.0964  22.4361   O         1 RES1   0.0000
  5318 O1      10.2211  17.0964  23.9057   O         1 RES1   0.0000
  5319 C1      12.6555  22.0848  10.2228   C         1 RES1   0.0000
  5320 C1      15.8515  24.2570  10.2228   C         1 RES1   0.0000
  5321 C1      15.8515  22.0848  18.2842   C         1 RES1   0.0000
  5322 C1      12.6555  24.2570  18.2842   C         1 RES1   0.0000
  5323 C1      10.2228  12.6555  22.0848   C         1 RES1   0.0000
  5324 C1      10.2228  15.8515  24.2570   C         1 RES1   0.0000
  5325 C1      18.2842  15.8515  22.0848   C         1 RES1   0.0000
  5326 C1      18.2842  12.6555  24.2570   C         1 RES1   0.0000
  5327 C1      22.0848  10.2228  12.6555   C         1 RES1   0.0000
  5328 C1      24.2570  10.2228  15.8515   C         1 RES1   0.0000
  5329 C1      22.0848  18.2842  15.8515   C         1 RES1   0.0000
  5330 C1      24.2570  18.2842  12.6555   C         1 RES1   0.0000
  5331 C1      24.7689  15.3396  27.2016   C         1 RES1   0.0000
  5332 C1      21.5729  13.1674  27.2016   C         1 RES1   0.0000
  5333 C1      21.5729  15.3396  19.1402   C         1 RES1   0.0000
  5334 C1      24.7689  13.1674  19.1402   C         1 RES1   0.0000
  5335 C1      27.2016  24.7689  15.3396   C         1 RES1   0.0000
  5336 C1      27.2016  21.5729  13.1674   C         1 RES1   0.0000
  5337 C1      19.1402  21.5729  15.3396   C         1 RES1   0.0000
  5338 C1      19.1402  24.7689  13.1674   C         1 RES1   0.0000
  5339 C1      15.3396  27.2016  24.7689   C         1 RES1   0.0000
  5340 C1      13.1674  27.2016  21.5729   C         1 RES1   0.0000
  5341 C1      15.3396  19.1402  21.5729   C         1 RES1   0.0000
  5342 C1      13.1674  19.1402  24.7689   C         1 RES1   0.0000
  5343 C2      13.6150  23.2690  10.2282   C         1 RES1   0.0000
  5344 C2      14.8920  23.0728  10.2282   C         1 RES1   0.0000
  5345 C2      14.8920  23.2690  18.2788   C         1 RES1   0.0000
  5346 C2      13.6150  23.0728  18.2788   C         1 RES1   0.0000
  5347 C2      10.2282  13.6150  23.2690   C         1 RES1   0.0000
  5348 C2      10.2282  14.8920  23.0728   C         1 RES1   0.0000
  5349 C2      18.2788  14.8920  23.2690   C         1 RES1   0.0000
  5350 C2      18.2788  13.6150  23.0728   C         1 RES1   0.0000
  5351 C2      23.2690  10.2282  13.6150   C         1 RES1   0.0000
  5352 C2      23.0728  10.2282  14.8920   C         1 RES1   0.0000
  5353 C2      23.2690  18.2788  14.8920   C         1 RES1   0.0000
  5354 C2      23.0728  18.2788  13.6150   C         1 RES1   0.0000
  5355 C2      23.8094  14.1554  27.1962   C         1 RES1   0.0000
  5356 C2      22.5324  14.3516  27.1962   C         1 RES1   0.0000
  5357 C2      22.5324  14.1554  19.1456   C         1 RES1   0.0000
  5358 C2      23.8094  14.3516  19.1456   C         1 RES1   0.0000
  5359 C2      27.1962  23.8094  14.1554   C         1 RES1   0.0000
  5360 C2      27.1962  22.5324  14.3516   C         1 RES1   0.0000
  5361 C2      19.1456  22.5324  14.1554   C         1 RES1   0.0000
  5362 C2      19.1456  23.8094  14.3516   C         1 RES1   0.0000
  5363 C2      14.1554  27.1962  23.8094   C         1 RES1   0.0000
  5364 C2      14.3516  27.1962  22.5324   C         1 RES1   0.0000
  5365 C2      14.1554  19.1456  22.5324   C         1 RES1   0.0000
  5366 C2      14.3516  19.1456  23.8094   C         1 RES1   0.0000
  5367 H       13.2815  24.1375  10.2300   H         1 RES1   0.0000
  5368 H       15.2255  22.2043  10.2300   H         1 RES1   0.0000
  5369 H       15.2255  24.1375  18.2770   H         1 RES1   0.0000
  5370 H       13.2815  22.2043  18.2770   H         1 RES1   0.0000
  5371 H       10.2300  13.2815  24.1375   H         1 RES1   0.0000
  5372 H       10.2300  15.2255  22.2043   H         1 RES1   0.0000
  5373 H       18.2770  15.2255  24.1375   H         1 RES1   0.0000
  5374 H       18.2770  13.2815  22.2043   H         1 RES1   0.0000
  5375 H       24.1375  10.2300  13.2815   H         1 RES1   0.0000
  5376 H       22.2043  10.2300  15.2255   H         1 RES1   0.0000
  5377 H       24.1375  18.2770  15.2255   H         1 RES1   0.0000
  5378 H       22.2043  18.2770  13.2815   H         1 RES1   0.0000
  5379 H       24.1429  13.2869  27.1944   H         1 RES1   0.0000
  5380 H       22.1989  15.2201  27.1944   H         1 RES1   0.0000
  5381 H       22.1989  13.2869  19.1474   H         1 RES1   0.0000
  5382 H       24.1429  15.2201  19.1474   H         1 RES1   0.0000
  5383 H       27.1944  24.1429  13.2869   H         1 RES1   0.0000
  5384 H       27.1944  22.1989  15.2201   H         1 RES1   0.0000
  5385 H       19.1474  22.1989  13.2869   H         1 RES1   0.0000
  5386 H       19.1474  24.1429  15.2201   H         1 RES1   0.0000
  5387 H       13.2869  27.1944  24.1429   H         1 RES1   0.0000
  5388 H       15.2201  27.1944  22.1989   H         1 RES1   0.0000
  5389 H       13.2869  19.1474  22.1989   H         1 RES1   0.0000
  5390 H       15.2201  19.1474  24.1429   H         1 RES1   0.0000
  5391 C1      13.1941  15.8551   9.7948   C         1 RES1   0.0000
  5392 C1      15.3129  12.6519   9.7948   C         1 RES1   0.0000
  5393 C1      15.3129  15.8551  18.7122   C         1 RES1   0.0000
  5394 C1      13.1941  12.6519  18.7122   C         1 RES1   0.0000
  5395 C1       9.7948  13.1941  15.8551   C         1 RES1   0.0000
  5396 C1       9.7948  15.3129  12.6519   C         1 RES1   0.0000
  5397 C1      18.7122  15.3129  15.8551   C         1 RES1   0.0000
  5398 C1      18.7122  13.1941  12.6519   C         1 RES1   0.0000
  5399 C1      15.8551   9.7948  13.1941   C         1 RES1   0.0000
  5400 C1      12.6519   9.7948  15.3129   C         1 RES1   0.0000
  5401 C1      15.8551  18.7122  15.3129   C         1 RES1   0.0000
  5402 C1      12.6519  18.7122  13.1941   C         1 RES1   0.0000
  5403 C1      24.2303  21.5693  27.6296   C         1 RES1   0.0000
  5404 C1      22.1115  24.7725  27.6296   C         1 RES1   0.0000
  5405 C1      22.1115  21.5693  18.7122   C         1 RES1   0.0000
  5406 C1      24.2303  24.7725  18.7122   C         1 RES1   0.0000
  5407 C1      27.6296  24.2303  21.5693   C         1 RES1   0.0000
  5408 C1      27.6296  22.1115  24.7725   C         1 RES1   0.0000
  5409 C1      18.7122  22.1115  21.5693   C         1 RES1   0.0000
  5410 C1      18.7122  24.2303  24.7725   C         1 RES1   0.0000
  5411 C1      21.5693  27.6296  24.2303   C         1 RES1   0.0000
  5412 C1      24.7725  27.6296  22.1115   C         1 RES1   0.0000
  5413 C1      21.5693  18.7122  22.1115   C         1 RES1   0.0000
  5414 C1      24.7725  18.7122  24.2303   C         1 RES1   0.0000
  5415 C2      14.3730  14.9045   9.7966   C         1 RES1   0.0000
  5416 C2      14.1340  13.6025   9.7966   C         1 RES1   0.0000
  5417 C2      14.1340  14.9045  18.7104   C         1 RES1   0.0000
  5418 C2      14.3730  13.6025  18.7104   C         1 RES1   0.0000
  5419 C2       9.7966  14.3730  14.9045   C         1 RES1   0.0000
  5420 C2       9.7966  14.1340  13.6025   C         1 RES1   0.0000
  5421 C2      18.7104  14.1340  14.9045   C         1 RES1   0.0000
  5422 C2      18.7104  14.3730  13.6025   C         1 RES1   0.0000
  5423 C2      14.9045   9.7966  14.3730   C         1 RES1   0.0000
  5424 C2      13.6025   9.7966  14.1340   C         1 RES1   0.0000
  5425 C2      14.9045  18.7104  14.1340   C         1 RES1   0.0000
  5426 C2      13.6025  18.7104  14.3730   C         1 RES1   0.0000
  5427 C2      23.0514  22.5199  27.6278   C         1 RES1   0.0000
  5428 C2      23.2904  23.8219  27.6278   C         1 RES1   0.0000
  5429 C2      23.2904  22.5199  18.7140   C         1 RES1   0.0000
  5430 C2      23.0514  23.8219  18.7140   C         1 RES1   0.0000
  5431 C2      27.6278  23.0514  22.5199   C         1 RES1   0.0000
  5432 C2      27.6278  23.2904  23.8219   C         1 RES1   0.0000
  5433 C2      18.7140  23.2904  22.5199   C         1 RES1   0.0000
  5434 C2      18.7140  23.0514  23.8219   C         1 RES1   0.0000
  5435 C2      22.5199  27.6278  23.0514   C         1 RES1   0.0000
  5436 C2      23.8219  27.6278  23.2904   C         1 RES1   0.0000
  5437 C2      22.5199  18.7140  23.2904   C         1 RES1   0.0000
  5438 C2      23.8219  18.7140  23.0514   C         1 RES1   0.0000
  5439 H       15.2451  15.2273   9.7966   H         1 RES1   0.0000
  5440 H       13.2619  13.2797   9.7966   H         1 RES1   0.0000
  5441 H       13.2619  15.2273  18.7104   H         1 RES1   0.0000
  5442 H       15.2451  13.2797  18.7104   H         1 RES1   0.0000
  5443 H        9.7966  15.2451  15.2273   H         1 RES1   0.0000
  5444 H        9.7966  13.2619  13.2797   H         1 RES1   0.0000
  5445 H       18.7104  13.2619  15.2273   H         1 RES1   0.0000
  5446 H       18.7104  15.2451  13.2797   H         1 RES1   0.0000
  5447 H       15.2273   9.7966  15.2451   H         1 RES1   0.0000
  5448 H       13.2797   9.7966  13.2619   H         1 RES1   0.0000
  5449 H       15.2273  18.7104  13.2619   H         1 RES1   0.0000
  5450 H       13.2797  18.7104  15.2451   H         1 RES1   0.0000
  5451 H       22.1793  22.1971  27.6278   H         1 RES1   0.0000
  5452 H       24.1625  24.1447  27.6278   H         1 RES1   0.0000
  5453 H       24.1625  22.1971  18.7140   H         1 RES1   0.0000
  5454 H       22.1793  24.1447  18.7140   H         1 RES1   0.0000
  5455 H       27.6278  22.1793  22.1971   H         1 RES1   0.0000
  5456 H       27.6278  24.1625  24.1447   H         1 RES1   0.0000
  5457 H       18.7140  24.1625  22.1971   H         1 RES1   0.0000
  5458 H       18.7140  22.1793  24.1447   H         1 RES1   0.0000
  5459 H       22.1971  27.6278  22.1793   H         1 RES1   0.0000
  5460 H       24.1447  27.6278  24.1625   H         1 RES1   0.0000
  5461 H       22.1971  18.7140  24.1625   H         1 RES1   0.0000
  5462 H       24.1447  18.7140  22.1793   H         1 RES1   0.0000
  5463 O2      17.3478  25.9941  26.4757   O         1 RES1   0.0000
  5464 O2      17.3478  20.3477  19.8661   O         1 RES1   0.0000
  5465 O2      26.4757  11.1592  20.3477   O         1 RES1   0.0000
  5466 O2      26.4757  17.3478  25.9941   O         1 RES1   0.0000
  5467 O2      19.8661  17.3478  20.3477   O         1 RES1   0.0000
  5468 O2      20.3477  26.4757  11.1592   O         1 RES1   0.0000
  5469 O2      25.9941  26.4757  17.3478   O         1 RES1   0.0000
  5470 O2      20.3477  19.8661  17.3478   O         1 RES1   0.0000
  5471 O2      20.0766  17.0767  17.5583   O         1 RES1   0.0000
  5472 O2      26.2652  11.4303  17.5583   O         1 RES1   0.0000
  5473 O2      17.5583  20.0766  17.0767   O         1 RES1   0.0000
  5474 O2      17.5583  26.2652  11.4303   O         1 RES1   0.0000
  5475 O2      17.0767  17.5583  20.0766   O         1 RES1   0.0000
  5476 O2      11.4303  17.5583  26.2652   O         1 RES1   0.0000
  5496 O2      17.3122  17.3122  17.3122   O         1 RES1   0.0000
  5497 O2      26.2296  20.1122  26.2296   O         1 RES1   0.0000
  5498 O2      20.1122  26.2296  26.2296   O         1 RES1   0.0000
  5499 O2      20.1122  20.1122  20.1122   O         1 RES1   0.0000
  5500 O2      26.2296  26.2296  20.1122   O         1 RES1   0.0000
  5501 Zr      30.0881  18.9107  10.0067   Z         1 RES1   0.0000
  5502 Zr      16.2537  27.4311  27.8415   Z         1 RES1   0.0000
  5503 Zr      30.0881  27.4311  18.5003   Z         1 RES1   0.0000
  5504 Zr      27.8415  12.2533  18.9107   Z         1 RES1   0.0000
  5505 Zr      27.8415  16.2537  27.4311   Z         1 RES1   0.0000
  5506 Zr      18.5003  30.0881  27.4311   Z         1 RES1   0.0000
  5507 Zr      18.9107  27.8415  12.2533   Z         1 RES1   0.0000
  5508 Zr      27.4311  27.8415  16.2537   Z         1 RES1   0.0000
  5509 Zr      27.4311  18.5003  30.0881   Z         1 RES1   0.0000
  5510 Zr      21.1707  27.8281  27.4177   Z         1 RES1   0.0000
  5511 Zr      25.1711  27.8281  18.9241   Z         1 RES1   0.0000
  5512 Zr      27.4177  21.1707  27.8281   Z         1 RES1   0.0000
  5513 Zr      18.9241  25.1711  27.8281   Z         1 RES1   0.0000
  5514 Zr      27.8281  27.4177  21.1707   Z         1 RES1   0.0000
  5515 Zr      27.8281  18.9241  25.1711   Z         1 RES1   0.0000
  5516 O1      14.9847  29.2615   9.9375   O         1 RES1   0.0000
  5517 O1      13.5223  29.2615  18.5695   O         1 RES1   0.0000
  5518 O1       9.9375  14.9847  29.2615   O         1 RES1   0.0000
  5519 O1      18.5695  13.5223  29.2615   O         1 RES1   0.0000
  5520 O1      29.2615   9.9375  14.9847   O         1 RES1   0.0000
  5521 O1      29.2615  18.5695  13.5223   O         1 RES1   0.0000
  5522 O1      15.3307  27.4994  12.0473   O         1 RES1   0.0000
  5523 O1      13.1763  27.4994  16.4597   O         1 RES1   0.0000
  5524 O1      12.0473  15.3307  27.4994   O         1 RES1   0.0000
  5525 O1      16.4597  13.1763  27.4994   O         1 RES1   0.0000
  5526 O1      27.4994  12.0473  15.3307   O         1 RES1   0.0000
  5527 O1      27.4994  16.4597  13.1763   O         1 RES1   0.0000
  5528 O1      23.9057  18.2859  29.2454   O         1 RES1   0.0000
  5529 O1      22.4361  10.2211  29.2454   O         1 RES1   0.0000
  5530 O1      29.2454  23.9057  18.2859   O         1 RES1   0.0000
  5531 O1      29.2454  22.4361  10.2211   O         1 RES1   0.0000
  5532 O1      18.2859  29.2454  23.9057   O         1 RES1   0.0000
  5533 O1      10.2211  29.2454  22.4361   O         1 RES1   0.0000
  5534 O2      28.9940  20.3477   8.6409   O         1 RES1   0.0000
  5535 O2      28.9940  25.9941  19.8661   O         1 RES1   0.0000
  5536 O2      19.8661  28.9940  25.9941   O         1 RES1   0.0000
  5537 O2      25.9941  19.8661  28.9940   O         1 RES1   0.0000
  5538 O2      26.2652  17.0767  28.7835   O         1 RES1   0.0000
  5539 O2      20.0766  11.4303  28.7835   O         1 RES1   0.0000
  5540 O2      28.7835  26.2652  17.0767   O         1 RES1   0.0000
  5541 O2      28.7835  20.0766  11.4303   O         1 RES1   0.0000
  5542 O2      17.0767  28.7835  26.2652   O         1 RES1   0.0000
  5543 O2      11.4303  28.7835  20.0766   O         1 RES1   0.0000
  5557 O2      29.0296  17.3122  11.1948   O         1 RES1   0.0000
  5558 O2      17.3122  29.0296  11.1948   O         1 RES1   0.0000
  5559 O2      29.0296  11.1948  17.3122   O         1 RES1   0.0000
  5560 Zr      16.2537  18.9107  36.3351   Z         1 RES1   0.0000
  5561 Zr      18.5003  16.2537  36.7455   Z         1 RES1   0.0000
  5562 Zr      18.9107  18.5003  34.0885   Z         1 RES1   0.0000
  5564 Zr      21.1707  18.5137  36.7589   Z         1 RES1   0.0000
  5565 Zr      27.4177  25.1711  36.3485   Z         1 RES1   0.0000
  5566 Zr      18.9241  21.1707  36.3485   Z         1 RES1   0.0000
  5569 O1      13.5223  17.0803  27.7723   O         1 RES1   0.0000
  5570 O1      14.9847  17.0803  36.4043   O         1 RES1   0.0000
  5571 O1       9.9375  13.5223  34.9151   O         1 RES1   0.0000
  5572 O1      18.5695  14.9847  34.9151   O         1 RES1   0.0000
  5573 O1      17.0803   9.9375  31.3571   O         1 RES1   0.0000
  5574 O1      17.0803  18.5695  32.8195   O         1 RES1   0.0000
  5577 O1      22.4397  20.3441  36.6897   O         1 RES1   0.0000
  5578 O1      23.9021  25.9977  36.6897   O         1 RES1   0.0000
  5587 O1      13.1905  20.9344  28.0683   O         1 RES1   0.0000
  5588 O1      15.3165  25.4074  28.0683   O         1 RES1   0.0000
  5589 O1      15.3165  20.9344  36.1083   O         1 RES1   0.0000
  5590 O1      13.1905  25.4074  36.1083   O         1 RES1   0.0000
  5595 O1      20.9344  10.2335  31.0253   O         1 RES1   0.0000
  5596 O1      25.4074  10.2335  33.1513   O         1 RES1   0.0000
  5597 O1      20.9344  18.2735  33.1513   O         1 RES1   0.0000
  5598 O1      25.4074  18.2735  31.0253   O         1 RES1   0.0000
  5601 O1      22.1079  16.4900  36.9857   O         1 RES1   0.0000
  5602 O1      24.2339  12.0170  36.9857   O         1 RES1   0.0000
  5603 O1      27.1909  24.2339  34.3248   O         1 RES1   0.0000
  5604 O1      27.1909  22.1079  29.8518   O         1 RES1   0.0000
  5605 O1      19.1509  22.1079  34.3248   O         1 RES1   0.0000
  5606 O1      19.1509  24.2339  29.8518   O         1 RES1   0.0000
  5611 O1      13.1763  18.8424  29.8821   O         1 RES1   0.0000
  5612 O1      15.3307  18.8424  34.2945   O         1 RES1   0.0000
  5613 O1      12.0473  13.1763  36.6772   O         1 RES1   0.0000
  5614 O1      16.4597  15.3307  36.6772   O         1 RES1   0.0000
  5615 O1      18.8424  12.0473  31.0111   O         1 RES1   0.0000
  5616 O1      18.8424  16.4597  33.1655   O         1 RES1   0.0000
  5621 O1      25.3771  24.2481  36.4168   O         1 RES1   0.0000
  5623 O1      20.9647  22.0937  36.4168   O         1 RES1   0.0000
  5633 O1      26.0138  13.5187  36.9733   O         1 RES1   0.0000
  5635 O1      20.3280  14.9883  36.9733   O         1 RES1   0.0000
  5637 O1      19.1385  26.0138  31.3535   O         1 RES1   0.0000
  5638 O1      27.2033  26.0138  32.8231   O         1 RES1   0.0000
  5639 O1      19.1385  20.3280  32.8231   O         1 RES1   0.0000
  5640 O1      27.2033  20.3280  31.3535   O         1 RES1   0.0000
  5641 O1      22.4361  18.2859  34.9312   O         1 RES1   0.0000
  5642 O1      23.9057  10.2211  34.9312   O         1 RES1   0.0000
  5643 O1      17.0964  22.4361  36.1207   O         1 RES1   0.0000
  5644 O1      17.0964  23.9057  28.0559   O         1 RES1   0.0000
  5647 C1      12.6555  22.0848  28.0576   C         1 RES1   0.0000
  5648 C1      15.8515  24.2570  28.0576   C         1 RES1   0.0000
  5649 C1      15.8515  22.0848  36.1190   C         1 RES1   0.0000
  5650 C1      12.6555  24.2570  36.1190   C         1 RES1   0.0000
  5655 C1      22.0848  10.2228  30.4903   C         1 RES1   0.0000
  5656 C1      24.2570  10.2228  33.6863   C         1 RES1   0.0000
  5657 C1      22.0848  18.2842  33.6863   C         1 RES1   0.0000
  5658 C1      24.2570  18.2842  30.4903   C         1 RES1   0.0000
  5661 C1      21.5729  15.3396  36.9750   C         1 RES1   0.0000
  5662 C1      24.7689  13.1674  36.9750   C         1 RES1   0.0000
  5663 C1      27.2016  24.7689  33.1744   C         1 RES1   0.0000
  5664 C1      27.2016  21.5729  31.0022   C         1 RES1   0.0000
  5665 C1      19.1402  21.5729  33.1744   C         1 RES1   0.0000
  5666 C1      19.1402  24.7689  31.0022   C         1 RES1   0.0000
  5671 C2      13.6150  23.2690  28.0630   C         1 RES1   0.0000
  5672 C2      14.8920  23.0728  28.0630   C         1 RES1   0.0000
  5673 C2      14.8920  23.2690  36.1136   C         1 RES1   0.0000
  5674 C2      13.6150  23.0728  36.1136   C         1 RES1   0.0000
  5679 C2      23.2690  10.2282  31.4498   C         1 RES1   0.0000
  5680 C2      23.0728  10.2282  32.7268   C         1 RES1   0.0000
  5681 C2      23.2690  18.2788  32.7268   C         1 RES1   0.0000
  5682 C2      23.0728  18.2788  31.4498   C         1 RES1   0.0000
  5685 C2      22.5324  14.1554  36.9804   C         1 RES1   0.0000
  5686 C2      23.8094  14.3516  36.9804   C         1 RES1   0.0000
  5687 C2      27.1962  23.8094  31.9902   C         1 RES1   0.0000
  5688 C2      27.1962  22.5324  32.1864   C         1 RES1   0.0000
  5689 C2      19.1456  22.5324  31.9902   C         1 RES1   0.0000
  5690 C2      19.1456  23.8094  32.1864   C         1 RES1   0.0000
  5695 H       13.2815  24.1375  28.0648   H         1 RES1   0.0000
  5696 H       15.2255  22.2043  28.0648   H         1 RES1   0.0000
  5697 H       15.2255  24.1375  36.1118   H         1 RES1   0.0000
  5698 H       13.2815  22.2043  36.1118   H         1 RES1   0.0000
  5703 H       24.1375  10.2300  31.1163   H         1 RES1   0.0000
  5704 H       22.2043  10.2300  33.0603   H         1 RES1   0.0000
  5705 H       24.1375  18.2770  33.0603   H         1 RES1   0.0000
  5706 H       22.2043  18.2770  31.1163   H         1 RES1   0.0000
  5709 H       22.1989  13.2869  36.9822   H         1 RES1   0.0000
  5710 H       24.1429  15.2201  36.9822   H         1 RES1   0.0000
  5711 H       27.1944  24.1429  31.1217   H         1 RES1   0.0000
  5712 H       27.1944  22.1989  33.0549   H         1 RES1   0.0000
  5713 H       19.1474  22.1989  31.1217   H         1 RES1   0.0000
  5714 H       19.1474  24.1429  33.0549   H         1 RES1   0.0000
  5719 C1      13.1941  15.8551  27.6296   C         1 RES1   0.0000
  5720 C1      15.3129  12.6519  27.6296   C         1 RES1   0.0000
  5721 C1      15.3129  15.8551  36.5470   C         1 RES1   0.0000
  5722 C1      13.1941  12.6519  36.5470   C         1 RES1   0.0000
  5723 C1       9.7948  13.1941  33.6899   C         1 RES1   0.0000
  5724 C1       9.7948  15.3129  30.4867   C         1 RES1   0.0000
  5725 C1      18.7122  15.3129  33.6899   C         1 RES1   0.0000
  5726 C1      18.7122  13.1941  30.4867   C         1 RES1   0.0000
  5727 C1      15.8551   9.7948  31.0289   C         1 RES1   0.0000
  5728 C1      12.6519   9.7948  33.1477   C         1 RES1   0.0000
  5729 C1      15.8551  18.7122  33.1477   C         1 RES1   0.0000
  5730 C1      12.6519  18.7122  31.0289   C         1 RES1   0.0000
  5733 C1      22.1115  21.5693  36.5470   C         1 RES1   0.0000
  5734 C1      24.2303  24.7725  36.5470   C         1 RES1   0.0000
  5743 C2      14.3730  14.9045  27.6314   C         1 RES1   0.0000
  5744 C2      14.1340  13.6025  27.6314   C         1 RES1   0.0000
  5745 C2      14.1340  14.9045  36.5452   C         1 RES1   0.0000
  5746 C2      14.3730  13.6025  36.5452   C         1 RES1   0.0000
  5747 C2       9.7966  14.3730  32.7393   C         1 RES1   0.0000
  5748 C2       9.7966  14.1340  31.4373   C         1 RES1   0.0000
  5749 C2      18.7104  14.1340  32.7393   C         1 RES1   0.0000
  5750 C2      18.7104  14.3730  31.4373   C         1 RES1   0.0000
  5751 C2      14.9045   9.7966  32.2078   C         1 RES1   0.0000
  5752 C2      13.6025   9.7966  31.9688   C         1 RES1   0.0000
  5753 C2      14.9045  18.7104  31.9688   C         1 RES1   0.0000
  5754 C2      13.6025  18.7104  32.2078   C         1 RES1   0.0000
  5757 C2      23.2904  22.5199  36.5488   C         1 RES1   0.0000
  5758 C2      23.0514  23.8219  36.5488   C         1 RES1   0.0000
  5767 H       15.2451  15.2273  27.6314   H         1 RES1   0.0000
  5768 H       13.2619  13.2797  27.6314   H         1 RES1   0.0000
  5769 H       13.2619  15.2273  36.5452   H         1 RES1   0.0000
  5770 H       15.2451  13.2797  36.5452   H         1 RES1   0.0000
  5771 H        9.7966  15.2451  33.0621   H         1 RES1   0.0000
  5772 H        9.7966  13.2619  31.1145   H         1 RES1   0.0000
  5773 H       18.7104  13.2619  33.0621   H         1 RES1   0.0000
  5774 H       18.7104  15.2451  31.1145   H         1 RES1   0.0000
  5775 H       15.2273   9.7966  33.0799   H         1 RES1   0.0000
  5776 H       13.2797   9.7966  31.0967   H         1 RES1   0.0000
  5777 H       15.2273  18.7104  31.0967   H         1 RES1   0.0000
  5778 H       13.2797  18.7104  33.0799   H         1 RES1   0.0000
  5781 H       24.1625  22.1971  36.5488   H         1 RES1   0.0000
  5782 H       22.1793  24.1447  36.5488   H         1 RES1   0.0000
  5797 O2      20.3477  26.4757  28.9940   O         1 RES1   0.0000
  5798 O2      25.9941  26.4757  35.1826   O         1 RES1   0.0000
  5799 O2      20.3477  19.8661  35.1826   O         1 RES1   0.0000
  5800 O2      20.0766  17.0767  35.3931   O         1 RES1   0.0000
  5801 O2      26.2652  11.4303  35.3931   O         1 RES1   0.0000
  5802 O2      17.5583  20.0766  34.9115   O         1 RES1   0.0000
  5803 O2      17.5583  26.2652  29.2651   O         1 RES1   0.0000
  5826 O2      17.3122  17.3122  35.1470   O         1 RES1   0.0000
  5832 Zr      30.0881  18.9107  27.8415   Z         1 RES1   0.0000
  5834 Zr      30.0881  27.4311  36.3351   Z         1 RES1   0.0000
  5835 Zr      27.8415  12.2533  36.7455   Z         1 RES1   0.0000
  5839 Zr      18.9107  27.8415  30.0881   Z         1 RES1   0.0000
  5840 Zr      27.4311  27.8415  34.0885   Z         1 RES1   0.0000
  5843 Zr      25.1711  27.8281  36.7589   Z         1 RES1   0.0000
  5848 O1      14.9847  29.2615  27.7723   O         1 RES1   0.0000
  5849 O1      13.5223  29.2615  36.4043   O         1 RES1   0.0000
  5852 O1      29.2615   9.9375  32.8195   O         1 RES1   0.0000
  5853 O1      29.2615  18.5695  31.3571   O         1 RES1   0.0000
  5854 O1      15.3307  27.4994  29.8821   O         1 RES1   0.0000
  5855 O1      13.1763  27.4994  34.2945   O         1 RES1   0.0000
  5858 O1      27.4994  12.0473  33.1655   O         1 RES1   0.0000
  5859 O1      27.4994  16.4597  31.0111   O         1 RES1   0.0000
  5862 O1      29.2454  23.9057  36.1207   O         1 RES1   0.0000
  5863 O1      29.2454  22.4361  28.0559   O         1 RES1   0.0000
  5866 O2      28.9940  20.3477  26.4757   O         1 RES1   0.0000
  5873 O2      28.7835  26.2652  34.9115   O         1 RES1   0.0000
  5874 O2      28.7835  20.0766  29.2651   O         1 RES1   0.0000
  5894 O2      29.0296  17.3122  29.0296   O         1 RES1   0.0000
  5896 O2      17.3122  29.0296  29.0296   O         1 RES1   0.0000
  5897 O2      29.0296  11.1948  35.1470   O         1 RES1   0.0000
  5899 Zr      16.2537  36.7455   0.6655   Z         1 RES1   0.0000
  5900 Zr      18.5003  34.0885   1.0759   Z         1 RES1   0.0000
  5903 Zr      25.1711  36.3485   9.5829   Z         1 RES1   0.0000
  5904 Zr      21.1707  36.3485   1.0893   Z         1 RES1   0.0000
  5910 Zr      18.5137  36.7589   3.3359   Z         1 RES1   0.0000
  5912 O1      14.9847  34.9151   0.7347   O         1 RES1   0.0000
  5929 O1      20.3441  36.6897   4.6049   O         1 RES1   0.0000
  5930 O1      25.9977  36.6897   6.0673   O         1 RES1   0.0000
  5935 O1      10.2335  31.0253   3.0996   O         1 RES1   0.0000
  5936 O1      10.2335  33.1513   7.5726   O         1 RES1   0.0000
  5937 O1      18.2735  33.1513   3.0996   O         1 RES1   0.0000
  5938 O1      18.2735  31.0253   7.5726   O         1 RES1   0.0000
  5943 O1      24.2339  34.3248   9.3561   O         1 RES1   0.0000
  5944 O1      22.1079  29.8518   9.3561   O         1 RES1   0.0000
  5945 O1      22.1079  34.3248   1.3161   O         1 RES1   0.0000
  5946 O1      24.2339  29.8518   1.3161   O         1 RES1   0.0000
  5953 O1      16.4900  36.9857   4.2731   O         1 RES1   0.0000
  5954 O1      12.0170  36.9857   6.3991   O         1 RES1   0.0000
  5957 O1      12.0473  31.0111   1.0076   O         1 RES1   0.0000
  5959 O1      16.4597  33.1655   1.0076   O         1 RES1   0.0000
  5963 O1      24.2481  36.4168   7.5423   O         1 RES1   0.0000
  5965 O1      22.0937  36.4168   3.1299   O         1 RES1   0.0000
  5975 O1      13.5187  36.9733   8.1790   O         1 RES1   0.0000
  5977 O1      14.9883  36.9733   2.4932   O         1 RES1   0.0000
  5979 O1      26.0138  31.3535   1.3037   O         1 RES1   0.0000
  5980 O1      26.0138  32.8231   9.3685   O         1 RES1   0.0000
  5981 O1      20.3280  32.8231   1.3037   O         1 RES1   0.0000
  5982 O1      20.3280  31.3535   9.3685   O         1 RES1   0.0000
  5993 O1      18.2859  34.9312   4.6013   O         1 RES1   0.0000
  5994 O1      10.2211  34.9312   6.0709   O         1 RES1   0.0000
  5999 C1      10.2228  30.4903   4.2500   C         1 RES1   0.0000
  6000 C1      10.2228  33.6863   6.4222   C         1 RES1   0.0000
  6001 C1      18.2842  33.6863   4.2500   C         1 RES1   0.0000
  6002 C1      18.2842  30.4903   6.4222   C         1 RES1   0.0000
  6007 C1      24.7689  33.1744   9.3668   C         1 RES1   0.0000
  6008 C1      21.5729  31.0022   9.3668   C         1 RES1   0.0000
  6009 C1      21.5729  33.1744   1.3054   C         1 RES1   0.0000
  6010 C1      24.7689  31.0022   1.3054   C         1 RES1   0.0000
  6017 C1      15.3396  36.9750   3.7381   C         1 RES1   0.0000
  6018 C1      13.1674  36.9750   6.9341   C         1 RES1   0.0000
  6023 C2      10.2282  31.4498   5.4342   C         1 RES1   0.0000
  6024 C2      10.2282  32.7268   5.2380   C         1 RES1   0.0000
  6025 C2      18.2788  32.7268   5.4342   C         1 RES1   0.0000
  6026 C2      18.2788  31.4498   5.2380   C         1 RES1   0.0000
  6031 C2      23.8094  31.9902   9.3614   C         1 RES1   0.0000
  6032 C2      22.5324  32.1864   9.3614   C         1 RES1   0.0000
  6033 C2      22.5324  31.9902   1.3108   C         1 RES1   0.0000
  6034 C2      23.8094  32.1864   1.3108   C         1 RES1   0.0000
  6041 C2      14.1554  36.9804   4.6976   C         1 RES1   0.0000
  6042 C2      14.3516  36.9804   5.9746   C         1 RES1   0.0000
  6047 H       10.2300  31.1163   6.3027   H         1 RES1   0.0000
  6048 H       10.2300  33.0603   4.3695   H         1 RES1   0.0000
  6049 H       18.2770  33.0603   6.3027   H         1 RES1   0.0000
  6050 H       18.2770  31.1163   4.3695   H         1 RES1   0.0000
  6055 H       24.1429  31.1217   9.3596   H         1 RES1   0.0000
  6056 H       22.1989  33.0549   9.3596   H         1 RES1   0.0000
  6057 H       22.1989  31.1217   1.3126   H         1 RES1   0.0000
  6058 H       24.1429  33.0549   1.3126   H         1 RES1   0.0000
  6065 H       13.2869  36.9822   4.3641   H         1 RES1   0.0000
  6066 H       15.2201  36.9822   6.3081   H         1 RES1   0.0000
  6069 C1      15.3129  33.6899   0.8774   C         1 RES1   0.0000
  6070 C1      13.1941  30.4867   0.8774   C         1 RES1   0.0000
  6089 C1      21.5693  36.5470   4.2767   C         1 RES1   0.0000
  6090 C1      24.7725  36.5470   6.3955   C         1 RES1   0.0000
  6093 C2      14.1340  32.7393   0.8756   C         1 RES1   0.0000
  6094 C2      14.3730  31.4373   0.8756   C         1 RES1   0.0000
  6113 C2      22.5199  36.5488   5.4556   C         1 RES1   0.0000
  6114 C2      23.8219  36.5488   5.2166   C         1 RES1   0.0000
  6117 H       13.2619  33.0621   0.8756   H         1 RES1   0.0000
  6118 H       15.2451  31.1145   0.8756   H         1 RES1   0.0000
  6137 H       22.1971  36.5488   6.3277   H         1 RES1   0.0000
  6138 H       24.1447  36.5488   4.3445   H         1 RES1   0.0000
  6141 O2      26.4757  28.9940   2.5129   O         1 RES1   0.0000
  6142 O2      26.4757  35.1826   8.1593   O         1 RES1   0.0000
  6143 O2      19.8661  35.1826   2.5129   O         1 RES1   0.0000
  6154 O2      17.0767  35.3931   2.2418   O         1 RES1   0.0000
  6155 O2      11.4303  35.3931   8.4304   O         1 RES1   0.0000
  6187 Zr      27.8415  30.0881   1.0759   Z         1 RES1   0.0000
  6189 Zr      27.8415  34.0885   9.5963   Z         1 RES1   0.0000
  6194 Zr      27.4311  36.3351  12.2533   Z         1 RES1   0.0000
  6204 Zr      27.8281  36.7589   7.3363   Z         1 RES1   0.0000
  6207 O1       9.9375  32.8195  11.4267   O         1 RES1   0.0000
  6208 O1      18.5695  31.3571  11.4267   O         1 RES1   0.0000
  6215 O1      12.0473  33.1655   9.6646   O         1 RES1   0.0000
  6216 O1      16.4597  31.0111   9.6646   O         1 RES1   0.0000
  6223 O1      23.9057  36.1207  11.4106   O         1 RES1   0.0000
  6224 O1      22.4361  28.0559  11.4106   O         1 RES1   0.0000
  6235 O2      26.2652  34.9115  10.9487   O         1 RES1   0.0000
  6236 O2      20.0766  29.2651  10.9487   O         1 RES1   0.0000
  6269 Zr      16.2537  36.7455  18.5003   Z         1 RES1   0.0000
  6270 Zr      18.5003  34.0885  18.9107   Z         1 RES1   0.0000
  6271 Zr      18.9107  36.3351  16.2537   Z         1 RES1   0.0000
  6272 Zr      25.1711  36.3485  27.4177   Z         1 RES1   0.0000
  6273 Zr      21.1707  36.3485  18.9241   Z         1 RES1   0.0000
  6277 Zr      18.5137  36.7589  21.1707   Z         1 RES1   0.0000
  6278 O1      13.5223  34.9151   9.9375   O         1 RES1   0.0000
  6279 O1      14.9847  34.9151  18.5695   O         1 RES1   0.0000
  6280 O1       9.9375  31.3571  17.0803   O         1 RES1   0.0000
  6281 O1      18.5695  32.8195  17.0803   O         1 RES1   0.0000
  6282 O1      17.0803  27.7723  13.5223   O         1 RES1   0.0000
  6283 O1      17.0803  36.4043  14.9847   O         1 RES1   0.0000
  6294 O1      20.3441  36.6897  22.4397   O         1 RES1   0.0000
  6295 O1      25.9977  36.6897  23.9021   O         1 RES1   0.0000
  6300 O1      10.2335  31.0253  20.9344   O         1 RES1   0.0000
  6301 O1      10.2335  33.1513  25.4074   O         1 RES1   0.0000
  6302 O1      18.2735  33.1513  20.9344   O         1 RES1   0.0000
  6303 O1      18.2735  31.0253  25.4074   O         1 RES1   0.0000
  6304 O1      20.9344  28.0683  13.1905   O         1 RES1   0.0000
  6305 O1      25.4074  28.0683  15.3165   O         1 RES1   0.0000
  6306 O1      20.9344  36.1083  15.3165   O         1 RES1   0.0000
  6307 O1      25.4074  36.1083  13.1905   O         1 RES1   0.0000
  6308 O1      24.2339  34.3248  27.1909   O         1 RES1   0.0000
  6309 O1      22.1079  29.8518  27.1909   O         1 RES1   0.0000
  6310 O1      22.1079  34.3248  19.1509   O         1 RES1   0.0000
  6311 O1      24.2339  29.8518  19.1509   O         1 RES1   0.0000
  6318 O1      16.4900  36.9857  22.1079   O         1 RES1   0.0000
  6319 O1      12.0170  36.9857  24.2339   O         1 RES1   0.0000
  6320 O1      13.1763  36.6772  12.0473   O         1 RES1   0.0000
  6321 O1      15.3307  36.6772  16.4597   O         1 RES1   0.0000
  6322 O1      12.0473  31.0111  18.8424   O         1 RES1   0.0000
  6323 O1      16.4597  33.1655  18.8424   O         1 RES1   0.0000
  6324 O1      18.8424  29.8821  13.1763   O         1 RES1   0.0000
  6325 O1      18.8424  34.2945  15.3307   O         1 RES1   0.0000
  6326 O1      24.2481  36.4168  25.3771   O         1 RES1   0.0000
  6328 O1      22.0937  36.4168  20.9647   O         1 RES1   0.0000
  6338 O1      13.5187  36.9733  26.0138   O         1 RES1   0.0000
  6340 O1      14.9883  36.9733  20.3280   O         1 RES1   0.0000
  6342 O1      26.0138  31.3535  19.1385   O         1 RES1   0.0000
  6343 O1      26.0138  32.8231  27.2033   O         1 RES1   0.0000
  6344 O1      20.3280  32.8231  19.1385   O         1 RES1   0.0000
  6345 O1      20.3280  31.3535  27.2033   O         1 RES1   0.0000
  6350 O1      22.4361  36.1207  17.0964   O         1 RES1   0.0000
  6351 O1      23.9057  28.0559  17.0964   O         1 RES1   0.0000
  6354 O1      18.2859  34.9312  22.4361   O         1 RES1   0.0000
  6355 O1      10.2211  34.9312  23.9057   O         1 RES1   0.0000
  6360 C1      10.2228  30.4903  22.0848   C         1 RES1   0.0000
  6361 C1      10.2228  33.6863  24.2570   C         1 RES1   0.0000
  6362 C1      18.2842  33.6863  22.0848   C         1 RES1   0.0000
  6363 C1      18.2842  30.4903  24.2570   C         1 RES1   0.0000
  6364 C1      22.0848  28.0576  12.6555   C         1 RES1   0.0000
  6365 C1      24.2570  28.0576  15.8515   C         1 RES1   0.0000
  6366 C1      22.0848  36.1190  15.8515   C         1 RES1   0.0000
  6367 C1      24.2570  36.1190  12.6555   C         1 RES1   0.0000
  6368 C1      24.7689  33.1744  27.2016   C         1 RES1   0.0000
  6369 C1      21.5729  31.0022  27.2016   C         1 RES1   0.0000
  6370 C1      21.5729  33.1744  19.1402   C         1 RES1   0.0000
  6371 C1      24.7689  31.0022  19.1402   C         1 RES1   0.0000
  6378 C1      15.3396  36.9750  21.5729   C         1 RES1   0.0000
  6379 C1      13.1674  36.9750  24.7689   C         1 RES1   0.0000
  6384 C2      10.2282  31.4498  23.2690   C         1 RES1   0.0000
  6385 C2      10.2282  32.7268  23.0728   C         1 RES1   0.0000
  6386 C2      18.2788  32.7268  23.2690   C         1 RES1   0.0000
  6387 C2      18.2788  31.4498  23.0728   C         1 RES1   0.0000
  6388 C2      23.2690  28.0630  13.6150   C         1 RES1   0.0000
  6389 C2      23.0728  28.0630  14.8920   C         1 RES1   0.0000
  6390 C2      23.2690  36.1136  14.8920   C         1 RES1   0.0000
  6391 C2      23.0728  36.1136  13.6150   C         1 RES1   0.0000
  6392 C2      23.8094  31.9902  27.1962   C         1 RES1   0.0000
  6393 C2      22.5324  32.1864  27.1962   C         1 RES1   0.0000
  6394 C2      22.5324  31.9902  19.1456   C         1 RES1   0.0000
  6395 C2      23.8094  32.1864  19.1456   C         1 RES1   0.0000
  6402 C2      14.1554  36.9804  22.5324   C         1 RES1   0.0000
  6403 C2      14.3516  36.9804  23.8094   C         1 RES1   0.0000
  6408 H       10.2300  31.1163  24.1375   H         1 RES1   0.0000
  6409 H       10.2300  33.0603  22.2043   H         1 RES1   0.0000
  6410 H       18.2770  33.0603  24.1375   H         1 RES1   0.0000
  6411 H       18.2770  31.1163  22.2043   H         1 RES1   0.0000
  6412 H       24.1375  28.0648  13.2815   H         1 RES1   0.0000
  6413 H       22.2043  28.0648  15.2255   H         1 RES1   0.0000
  6414 H       24.1375  36.1118  15.2255   H         1 RES1   0.0000
  6415 H       22.2043  36.1118  13.2815   H         1 RES1   0.0000
  6416 H       24.1429  31.1217  27.1944   H         1 RES1   0.0000
  6417 H       22.1989  33.0549  27.1944   H         1 RES1   0.0000
  6418 H       22.1989  31.1217  19.1474   H         1 RES1   0.0000
  6419 H       24.1429  33.0549  19.1474   H         1 RES1   0.0000
  6426 H       13.2869  36.9822  22.1989   H         1 RES1   0.0000
  6427 H       15.2201  36.9822  24.1429   H         1 RES1   0.0000
  6428 C1      13.1941  33.6899   9.7948   C         1 RES1   0.0000
  6429 C1      15.3129  30.4867   9.7948   C         1 RES1   0.0000
  6430 C1      15.3129  33.6899  18.7122   C         1 RES1   0.0000
  6431 C1      13.1941  30.4867  18.7122   C         1 RES1   0.0000
  6432 C1       9.7948  31.0289  15.8551   C         1 RES1   0.0000
  6433 C1       9.7948  33.1477  12.6519   C         1 RES1   0.0000
  6434 C1      18.7122  33.1477  15.8551   C         1 RES1   0.0000
  6435 C1      18.7122  31.0289  12.6519   C         1 RES1   0.0000
  6436 C1      15.8551  27.6296  13.1941   C         1 RES1   0.0000
  6437 C1      12.6519  27.6296  15.3129   C         1 RES1   0.0000
  6438 C1      15.8551  36.5470  15.3129   C         1 RES1   0.0000
  6439 C1      12.6519  36.5470  13.1941   C         1 RES1   0.0000
  6450 C1      21.5693  36.5470  22.1115   C         1 RES1   0.0000
  6451 C1      24.7725  36.5470  24.2303   C         1 RES1   0.0000
  6452 C2      14.3730  32.7393   9.7966   C         1 RES1   0.0000
  6453 C2      14.1340  31.4373   9.7966   C         1 RES1   0.0000
  6454 C2      14.1340  32.7393  18.7104   C         1 RES1   0.0000
  6455 C2      14.3730  31.4373  18.7104   C         1 RES1   0.0000
  6456 C2       9.7966  32.2078  14.9045   C         1 RES1   0.0000
  6457 C2       9.7966  31.9688  13.6025   C         1 RES1   0.0000
  6458 C2      18.7104  31.9688  14.9045   C         1 RES1   0.0000
  6459 C2      18.7104  32.2078  13.6025   C         1 RES1   0.0000
  6460 C2      14.9045  27.6314  14.3730   C         1 RES1   0.0000
  6461 C2      13.6025  27.6314  14.1340   C         1 RES1   0.0000
  6462 C2      14.9045  36.5452  14.1340   C         1 RES1   0.0000
  6463 C2      13.6025  36.5452  14.3730   C         1 RES1   0.0000
  6474 C2      22.5199  36.5488  23.2904   C         1 RES1   0.0000
  6475 C2      23.8219  36.5488  23.0514   C         1 RES1   0.0000
  6476 H       15.2451  33.0621   9.7966   H         1 RES1   0.0000
  6477 H       13.2619  31.1145   9.7966   H         1 RES1   0.0000
  6478 H       13.2619  33.0621  18.7104   H         1 RES1   0.0000
  6479 H       15.2451  31.1145  18.7104   H         1 RES1   0.0000
  6480 H        9.7966  33.0799  15.2273   H         1 RES1   0.0000
  6481 H        9.7966  31.0967  13.2797   H         1 RES1   0.0000
  6482 H       18.7104  31.0967  15.2273   H         1 RES1   0.0000
  6483 H       18.7104  33.0799  13.2797   H         1 RES1   0.0000
  6484 H       15.2273  27.6314  15.2451   H         1 RES1   0.0000
  6485 H       13.2797  27.6314  13.2619   H         1 RES1   0.0000
  6486 H       15.2273  36.5452  13.2619   H         1 RES1   0.0000
  6487 H       13.2797  36.5452  15.2451   H         1 RES1   0.0000
  6498 H       22.1971  36.5488  24.1625   H         1 RES1   0.0000
  6499 H       24.1447  36.5488  22.1793   H         1 RES1   0.0000
  6502 O2      26.4757  28.9940  20.3477   O         1 RES1   0.0000
  6503 O2      26.4757  35.1826  25.9941   O         1 RES1   0.0000
  6504 O2      19.8661  35.1826  20.3477   O         1 RES1   0.0000
  6508 O2      20.0766  34.9115  17.5583   O         1 RES1   0.0000
  6509 O2      26.2652  29.2651  17.5583   O         1 RES1   0.0000
  6512 O2      17.0767  35.3931  20.0766   O         1 RES1   0.0000
  6513 O2      11.4303  35.3931  26.2652   O         1 RES1   0.0000
  6533 O2      17.3122  35.1470  17.3122   O         1 RES1   0.0000
  6538 Zr      30.0881  36.7455  10.0067   Z         1 RES1   0.0000
  6542 Zr      27.8415  30.0881  18.9107   Z         1 RES1   0.0000
  6543 Zr      27.8415  34.0885  27.4311   Z         1 RES1   0.0000
  6547 Zr      27.4311  36.3351  30.0881   Z         1 RES1   0.0000
  6553 Zr      27.8281  36.7589  25.1711   Z         1 RES1   0.0000
  6556 O1       9.9375  32.8195  29.2615   O         1 RES1   0.0000
  6557 O1      18.5695  31.3571  29.2615   O         1 RES1   0.0000
  6558 O1      29.2615  27.7723  14.9847   O         1 RES1   0.0000
  6559 O1      29.2615  36.4043  13.5223   O         1 RES1   0.0000
  6562 O1      12.0473  33.1655  27.4994   O         1 RES1   0.0000
  6563 O1      16.4597  31.0111  27.4994   O         1 RES1   0.0000
  6564 O1      27.4994  29.8821  15.3307   O         1 RES1   0.0000
  6565 O1      27.4994  34.2945  13.1763   O         1 RES1   0.0000
  6566 O1      23.9057  36.1207  29.2454   O         1 RES1   0.0000
  6567 O1      22.4361  28.0559  29.2454   O         1 RES1   0.0000
  6577 O2      26.2652  34.9115  28.7835   O         1 RES1   0.0000
  6578 O2      20.0766  29.2651  28.7835   O         1 RES1   0.0000
  6598 O2      29.0296  35.1470  11.1948   O         1 RES1   0.0000
  6601 O2      29.0296  29.0296  17.3122   O         1 RES1   0.0000
  6602 Zr      16.2537  36.7455  36.3351   Z         1 RES1   0.0000
  6603 Zr      18.5003  34.0885  36.7455   Z         1 RES1   0.0000
  6604 Zr      18.9107  36.3351  34.0885   Z         1 RES1   0.0000
  6606 Zr      21.1707  36.3485  36.7589   Z         1 RES1   0.0000
  6611 O1      13.5223  34.9151  27.7723   O         1 RES1   0.0000
  6612 O1      14.9847  34.9151  36.4043   O         1 RES1   0.0000
  6613 O1       9.9375  31.3571  34.9151   O         1 RES1   0.0000
  6614 O1      18.5695  32.8195  34.9151   O         1 RES1   0.0000
  6615 O1      17.0803  27.7723  31.3571   O         1 RES1   0.0000
  6616 O1      17.0803  36.4043  32.8195   O         1 RES1   0.0000
  6637 O1      20.9344  28.0683  31.0253   O         1 RES1   0.0000
  6638 O1      25.4074  28.0683  33.1513   O         1 RES1   0.0000
  6639 O1      20.9344  36.1083  33.1513   O         1 RES1   0.0000
  6640 O1      25.4074  36.1083  31.0253   O         1 RES1   0.0000
  6643 O1      22.1079  34.3248  36.9857   O         1 RES1   0.0000
  6644 O1      24.2339  29.8518  36.9857   O         1 RES1   0.0000
  6653 O1      13.1763  36.6772  29.8821   O         1 RES1   0.0000
  6654 O1      15.3307  36.6772  34.2945   O         1 RES1   0.0000
  6655 O1      12.0473  31.0111  36.6772   O         1 RES1   0.0000
  6656 O1      16.4597  33.1655  36.6772   O         1 RES1   0.0000
  6657 O1      18.8424  29.8821  31.0111   O         1 RES1   0.0000
  6658 O1      18.8424  34.2945  33.1655   O         1 RES1   0.0000
  6675 O1      26.0138  31.3535  36.9733   O         1 RES1   0.0000
  6677 O1      20.3280  32.8231  36.9733   O         1 RES1   0.0000
  6683 O1      22.4361  36.1207  34.9312   O         1 RES1   0.0000
  6684 O1      23.9057  28.0559  34.9312   O         1 RES1   0.0000
  6697 C1      22.0848  28.0576  30.4903   C         1 RES1   0.0000
  6698 C1      24.2570  28.0576  33.6863   C         1 RES1   0.0000
  6699 C1      22.0848  36.1190  33.6863   C         1 RES1   0.0000
  6700 C1      24.2570  36.1190  30.4903   C         1 RES1   0.0000
  6703 C1      21.5729  33.1744  36.9750   C         1 RES1   0.0000
  6704 C1      24.7689  31.0022  36.9750   C         1 RES1   0.0000
  6721 C2      23.2690  28.0630  31.4498   C         1 RES1   0.0000
  6722 C2      23.0728  28.0630  32.7268   C         1 RES1   0.0000
  6723 C2      23.2690  36.1136  32.7268   C         1 RES1   0.0000
  6724 C2      23.0728  36.1136  31.4498   C         1 RES1   0.0000
  6727 C2      22.5324  31.9902  36.9804   C         1 RES1   0.0000
  6728 C2      23.8094  32.1864  36.9804   C         1 RES1   0.0000
  6745 H       24.1375  28.0648  31.1163   H         1 RES1   0.0000
  6746 H       22.2043  28.0648  33.0603   H         1 RES1   0.0000
  6747 H       24.1375  36.1118  33.0603   H         1 RES1   0.0000
  6748 H       22.2043  36.1118  31.1163   H         1 RES1   0.0000
  6751 H       22.1989  31.1217  36.9822   H         1 RES1   0.0000
  6752 H       24.1429  33.0549  36.9822   H         1 RES1   0.0000
  6761 C1      13.1941  33.6899  27.6296   C         1 RES1   0.0000
  6762 C1      15.3129  30.4867  27.6296   C         1 RES1   0.0000
  6763 C1      15.3129  33.6899  36.5470   C         1 RES1   0.0000
  6764 C1      13.1941  30.4867  36.5470   C         1 RES1   0.0000
  6765 C1       9.7948  31.0289  33.6899   C         1 RES1   0.0000
  6766 C1       9.7948  33.1477  30.4867   C         1 RES1   0.0000
  6767 C1      18.7122  33.1477  33.6899   C         1 RES1   0.0000
  6768 C1      18.7122  31.0289  30.4867   C         1 RES1   0.0000
  6769 C1      15.8551  27.6296  31.0289   C         1 RES1   0.0000
  6770 C1      12.6519  27.6296  33.1477   C         1 RES1   0.0000
  6771 C1      15.8551  36.5470  33.1477   C         1 RES1   0.0000
  6772 C1      12.6519  36.5470  31.0289   C         1 RES1   0.0000
  6785 C2      14.3730  32.7393  27.6314   C         1 RES1   0.0000
  6786 C2      14.1340  31.4373  27.6314   C         1 RES1   0.0000
  6787 C2      14.1340  32.7393  36.5452   C         1 RES1   0.0000
  6788 C2      14.3730  31.4373  36.5452   C         1 RES1   0.0000
  6789 C2       9.7966  32.2078  32.7393   C         1 RES1   0.0000
  6790 C2       9.7966  31.9688  31.4373   C         1 RES1   0.0000
  6791 C2      18.7104  31.9688  32.7393   C         1 RES1   0.0000
  6792 C2      18.7104  32.2078  31.4373   C         1 RES1   0.0000
  6793 C2      14.9045  27.6314  32.2078   C         1 RES1   0.0000
  6794 C2      13.6025  27.6314  31.9688   C         1 RES1   0.0000
  6795 C2      14.9045  36.5452  31.9688   C         1 RES1   0.0000
  6796 C2      13.6025  36.5452  32.2078   C         1 RES1   0.0000
  6809 H       15.2451  33.0621  27.6314   H         1 RES1   0.0000
  6810 H       13.2619  31.1145  27.6314   H         1 RES1   0.0000
  6811 H       13.2619  33.0621  36.5452   H         1 RES1   0.0000
  6812 H       15.2451  31.1145  36.5452   H         1 RES1   0.0000
  6813 H        9.7966  33.0799  33.0621   H         1 RES1   0.0000
  6814 H        9.7966  31.0967  31.1145   H         1 RES1   0.0000
  6815 H       18.7104  31.0967  33.0621   H         1 RES1   0.0000
  6816 H       18.7104  33.0799  31.1145   H         1 RES1   0.0000
  6817 H       15.2273  27.6314  33.0799   H         1 RES1   0.0000
  6818 H       13.2797  27.6314  31.0967   H         1 RES1   0.0000
  6819 H       15.2273  36.5452  31.0967   H         1 RES1   0.0000
  6820 H       13.2797  36.5452  33.0799   H         1 RES1   0.0000
  6842 O2      20.0766  34.9115  35.3931   O         1 RES1   0.0000
  6843 O2      26.2652  29.2651  35.3931   O         1 RES1   0.0000
  6868 O2      17.3122  35.1470  35.1470   O         1 RES1   0.0000
  6874 Zr      30.0881  36.7455  27.8415   Z         1 RES1   0.0000
  6878 Zr      27.8415  30.0881  36.7455   Z         1 RES1   0.0000
  6895 O1      29.2615  27.7723  32.8195   O         1 RES1   0.0000
  6896 O1      29.2615  36.4043  31.3571   O         1 RES1   0.0000
  6901 O1      27.4994  29.8821  33.1655   O         1 RES1   0.0000
  6902 O1      27.4994  34.2945  31.0111   O         1 RES1   0.0000
  6940 O2      29.0296  35.1470  29.0296   O         1 RES1   0.0000
  6944 O2      29.0296  29.0296  35.1470   O         1 RES1   0.0000
  6946 Zr      34.0885   1.0759   0.6655   Z         1 RES1   0.0000
  6959 Zr      36.7589   3.3359   0.6789   Z         1 RES1   0.0000
  6961 Zr      36.3485   9.5829   7.3363   Z         1 RES1   0.0000
  6962 Zr      36.3485   1.0893   3.3359   Z         1 RES1   0.0000
  6979 O1      36.6897   4.6049   2.5093   O         1 RES1   0.0000
  6980 O1      36.6897   6.0673   8.1629   O         1 RES1   0.0000
  6987 O1      33.1513   3.0996   0.4387   O         1 RES1   0.0000
  6988 O1      31.0253   7.5726   0.4387   O         1 RES1   0.0000
  7005 O1      34.3248   9.3561   6.3991   O         1 RES1   0.0000
  7006 O1      29.8518   9.3561   4.2731   O         1 RES1   0.0000
  7007 O1      34.3248   1.3161   4.2731   O         1 RES1   0.0000
  7008 O1      29.8518   1.3161   6.3991   O         1 RES1   0.0000
  7027 O1      36.4168   7.5423   6.4133   O         1 RES1   0.0000
  7029 O1      36.4168   3.1299   4.2589   O         1 RES1   0.0000
  7031 O1      31.3535   1.3037   8.1790   O         1 RES1   0.0000
  7032 O1      32.8231   9.3685   8.1790   O         1 RES1   0.0000
  7033 O1      32.8231   1.3037   2.4932   O         1 RES1   0.0000
  7034 O1      31.3535   9.3685   2.4932   O         1 RES1   0.0000
  7047 O1      34.9312   4.6013   0.4511   O         1 RES1   0.0000
  7055 C1      33.6863   4.2500   0.4494   C         1 RES1   0.0000
  7056 C1      30.4903   6.4222   0.4494   C         1 RES1   0.0000
  7073 C1      33.1744   9.3668   6.9341   C         1 RES1   0.0000
  7074 C1      31.0022   9.3668   3.7381   C         1 RES1   0.0000
  7075 C1      33.1744   1.3054   3.7381   C         1 RES1   0.0000
  7076 C1      31.0022   1.3054   6.9341   C         1 RES1   0.0000
  7079 C2      32.7268   5.4342   0.4440   C         1 RES1   0.0000
  7080 C2      31.4498   5.2380   0.4440   C         1 RES1   0.0000
  7097 C2      31.9902   9.3614   5.9746   C         1 RES1   0.0000
  7098 C2      32.1864   9.3614   4.6976   C         1 RES1   0.0000
  7099 C2      31.9902   1.3108   4.6976   C         1 RES1   0.0000
  7100 C2      32.1864   1.3108   5.9746   C         1 RES1   0.0000
  7103 H       33.0603   6.3027   0.4422   H         1 RES1   0.0000
  7104 H       31.1163   4.3695   0.4422   H         1 RES1   0.0000
  7121 H       31.1217   9.3596   6.3081   H         1 RES1   0.0000
  7122 H       33.0549   9.3596   4.3641   H         1 RES1   0.0000
  7123 H       31.1217   1.3126   4.3641   H         1 RES1   0.0000
  7124 H       33.0549   1.3126   6.3081   H         1 RES1   0.0000
  7143 C1      36.5470   4.2767   3.7345   C         1 RES1   0.0000
  7144 C1      36.5470   6.3955   6.9377   C         1 RES1   0.0000
  7167 C2      36.5488   5.4556   4.6851   C         1 RES1   0.0000
  7168 C2      36.5488   5.2166   5.9871   C         1 RES1   0.0000
  7191 H       36.5488   6.3277   4.3623   H         1 RES1   0.0000
  7192 H       36.5488   4.3445   6.3099   H         1 RES1   0.0000
  7197 O2      35.1826   8.1593   8.6409   O         1 RES1   0.0000
  7198 O2      35.1826   2.5129   2.0313   O         1 RES1   0.0000
  7252 Zr      34.0885   9.5963  10.0067   Z         1 RES1   0.0000
  7260 Zr      36.3351  12.2533   9.5963   Z         1 RES1   0.0000
  7274 Zr      36.7589   7.3363   9.9933   Z         1 RES1   0.0000
  7282 O1      31.3571  11.4267   0.7347   O         1 RES1   0.0000
  7309 O1      36.1207  11.4106   6.0709   O         1 RES1   0.0000
  7310 O1      28.0559  11.4106   4.6013   O         1 RES1   0.0000
  7326 O2      34.9115  10.9487   8.4304   O         1 RES1   0.0000
  7327 O2      29.2651  10.9487   2.2418   O         1 RES1   0.0000
  7363 Zr      34.0885   1.0759  18.5003   Z         1 RES1   0.0000
  7367 Zr      36.7455   0.6655  16.2537   Z         1 RES1   0.0000
  7373 Zr      36.7589   3.3359  18.5137   Z         1 RES1   0.0000
  7374 Zr      36.3485   9.5829  25.1711   Z         1 RES1   0.0000
  7375 Zr      36.3485   1.0893  21.1707   Z         1 RES1   0.0000
  7383 O1      34.9151   0.7347  14.9847   O         1 RES1   0.0000
  7390 O1      36.6897   4.6049  20.3441   O         1 RES1   0.0000
  7391 O1      36.6897   6.0673  25.9977   O         1 RES1   0.0000
  7396 O1      31.0253   3.0996  10.2335   O         1 RES1   0.0000
  7397 O1      33.1513   7.5726  10.2335   O         1 RES1   0.0000
  7398 O1      33.1513   3.0996  18.2735   O         1 RES1   0.0000
  7399 O1      31.0253   7.5726  18.2735   O         1 RES1   0.0000
  7414 O1      36.9857   4.2731  16.4900   O         1 RES1   0.0000
  7415 O1      36.9857   6.3991  12.0170   O         1 RES1   0.0000
  7416 O1      34.3248   9.3561  24.2339   O         1 RES1   0.0000
  7417 O1      29.8518   9.3561  22.1079   O         1 RES1   0.0000
  7418 O1      34.3248   1.3161  22.1079   O         1 RES1   0.0000
  7419 O1      29.8518   1.3161  24.2339   O         1 RES1   0.0000
  7420 O1      31.0111   1.0076  12.0473   O         1 RES1   0.0000
  7422 O1      33.1655   1.0076  16.4597   O         1 RES1   0.0000
  7436 O1      36.4168   7.5423  24.2481   O         1 RES1   0.0000
  7438 O1      36.4168   3.1299  22.0937   O         1 RES1   0.0000
  7440 O1      31.3535   1.3037  26.0138   O         1 RES1   0.0000
  7441 O1      32.8231   9.3685  26.0138   O         1 RES1   0.0000
  7442 O1      32.8231   1.3037  20.3280   O         1 RES1   0.0000
  7443 O1      31.3535   9.3685  20.3280   O         1 RES1   0.0000
  7448 O1      36.9733   8.1790  13.5187   O         1 RES1   0.0000
  7450 O1      36.9733   2.4932  14.9883   O         1 RES1   0.0000
  7454 O1      34.9312   4.6013  18.2859   O         1 RES1   0.0000
  7455 O1      34.9312   6.0709  10.2211   O         1 RES1   0.0000
  7460 C1      30.4903   4.2500  10.2228   C         1 RES1   0.0000
  7461 C1      33.6863   6.4222  10.2228   C         1 RES1   0.0000
  7462 C1      33.6863   4.2500  18.2842   C         1 RES1   0.0000
  7463 C1      30.4903   6.4222  18.2842   C         1 RES1   0.0000
  7478 C1      36.9750   3.7381  15.3396   C         1 RES1   0.0000
  7479 C1      36.9750   6.9341  13.1674   C         1 RES1   0.0000
  7480 C1      33.1744   9.3668  24.7689   C         1 RES1   0.0000
  7481 C1      31.0022   9.3668  21.5729   C         1 RES1   0.0000
  7482 C1      33.1744   1.3054  21.5729   C         1 RES1   0.0000
  7483 C1      31.0022   1.3054  24.7689   C         1 RES1   0.0000
  7484 C2      31.4498   5.4342  10.2282   C         1 RES1   0.0000
  7485 C2      32.7268   5.2380  10.2282   C         1 RES1   0.0000
  7486 C2      32.7268   5.4342  18.2788   C         1 RES1   0.0000
  7487 C2      31.4498   5.2380  18.2788   C         1 RES1   0.0000
  7502 C2      36.9804   4.6976  14.1554   C         1 RES1   0.0000
  7503 C2      36.9804   5.9746  14.3516   C         1 RES1   0.0000
  7504 C2      31.9902   9.3614  23.8094   C         1 RES1   0.0000
  7505 C2      32.1864   9.3614  22.5324   C         1 RES1   0.0000
  7506 C2      31.9902   1.3108  22.5324   C         1 RES1   0.0000
  7507 C2      32.1864   1.3108  23.8094   C         1 RES1   0.0000
  7508 H       31.1163   6.3027  10.2300   H         1 RES1   0.0000
  7509 H       33.0603   4.3695  10.2300   H         1 RES1   0.0000
  7510 H       33.0603   6.3027  18.2770   H         1 RES1   0.0000
  7511 H       31.1163   4.3695  18.2770   H         1 RES1   0.0000
  7526 H       36.9822   4.3641  13.2869   H         1 RES1   0.0000
  7527 H       36.9822   6.3081  15.2201   H         1 RES1   0.0000
  7528 H       31.1217   9.3596  24.1429   H         1 RES1   0.0000
  7529 H       33.0549   9.3596  22.1989   H         1 RES1   0.0000
  7530 H       31.1217   1.3126  22.1989   H         1 RES1   0.0000
  7531 H       33.0549   1.3126  24.1429   H         1 RES1   0.0000
  7542 C1      33.6899   0.8774  15.3129   C         1 RES1   0.0000
  7543 C1      30.4867   0.8774  13.1941   C         1 RES1   0.0000
  7550 C1      36.5470   4.2767  21.5693   C         1 RES1   0.0000
  7551 C1      36.5470   6.3955  24.7725   C         1 RES1   0.0000
  7566 C2      32.7393   0.8756  14.1340   C         1 RES1   0.0000
  7567 C2      31.4373   0.8756  14.3730   C         1 RES1   0.0000
  7574 C2      36.5488   5.4556  22.5199   C         1 RES1   0.0000
  7575 C2      36.5488   5.2166  23.8219   C         1 RES1   0.0000
  7590 H       33.0621   0.8756  13.2619   H         1 RES1   0.0000
  7591 H       31.1145   0.8756  15.2451   H         1 RES1   0.0000
  7598 H       36.5488   6.3277  22.1971   H         1 RES1   0.0000
  7599 H       36.5488   4.3445  24.1447   H         1 RES1   0.0000
  7604 O2      35.1826   8.1593  26.4757   O         1 RES1   0.0000
  7605 O2      35.1826   2.5129  19.8661   O         1 RES1   0.0000
  7615 O2      35.3931   2.2418  17.0767   O         1 RES1   0.0000
  7616 O2      35.3931   8.4304  11.4303   O         1 RES1   0.0000
  7650 Zr      34.0885   9.5963  27.8415   Z         1 RES1   0.0000
  7655 Zr      36.3351  12.2533  27.4311   Z         1 RES1   0.0000
  7657 Zr      36.7455  10.0067  12.2533   Z         1 RES1   0.0000
  7665 Zr      36.7589   7.3363  27.8281   Z         1 RES1   0.0000
  7670 O1      32.8195  11.4267   9.9375   O         1 RES1   0.0000
  7671 O1      31.3571  11.4267  18.5695   O         1 RES1   0.0000
  7678 O1      33.1655   9.6646  12.0473   O         1 RES1   0.0000
  7679 O1      31.0111   9.6646  16.4597   O         1 RES1   0.0000
  7692 O1      36.1207  11.4106  23.9057   O         1 RES1   0.0000
  7693 O1      28.0559  11.4106  22.4361   O         1 RES1   0.0000
  7706 O2      34.9115  10.9487  26.2652   O         1 RES1   0.0000
  7707 O2      29.2651  10.9487  20.0766   O         1 RES1   0.0000
  7730 O2      35.1470  11.1948  11.1948   O         1 RES1   0.0000
  7734 Zr      34.0885   1.0759  36.3351   Z         1 RES1   0.0000
  7738 Zr      36.7455   0.6655  34.0885   Z         1 RES1   0.0000
  7744 Zr      36.7589   3.3359  36.3485   Z         1 RES1   0.0000
  7754 O1      34.9151   0.7347  32.8195   O         1 RES1   0.0000
  7767 O1      31.0253   3.0996  28.0683   O         1 RES1   0.0000
  7768 O1      33.1513   7.5726  28.0683   O         1 RES1   0.0000
  7769 O1      33.1513   3.0996  36.1083   O         1 RES1   0.0000
  7770 O1      31.0253   7.5726  36.1083   O         1 RES1   0.0000
  7785 O1      36.9857   4.2731  34.3248   O         1 RES1   0.0000
  7786 O1      36.9857   6.3991  29.8518   O         1 RES1   0.0000
  7791 O1      31.0111   1.0076  29.8821   O         1 RES1   0.0000
  7793 O1      33.1655   1.0076  34.2945   O         1 RES1   0.0000
  7819 O1      36.9733   8.1790  31.3535   O         1 RES1   0.0000
  7821 O1      36.9733   2.4932  32.8231   O         1 RES1   0.0000
  7825 O1      34.9312   4.6013  36.1207   O         1 RES1   0.0000
  7826 O1      34.9312   6.0709  28.0559   O         1 RES1   0.0000
  7831 C1      30.4903   4.2500  28.0576   C         1 RES1   0.0000
  7832 C1      33.6863   6.4222  28.0576   C         1 RES1   0.0000
  7833 C1      33.6863   4.2500  36.1190   C         1 RES1   0.0000
  7834 C1      30.4903   6.4222  36.1190   C         1 RES1   0.0000
  7849 C1      36.9750   3.7381  33.1744   C         1 RES1   0.0000
  7850 C1      36.9750   6.9341  31.0022   C         1 RES1   0.0000
  7855 C2      31.4498   5.4342  28.0630   C         1 RES1   0.0000
  7856 C2      32.7268   5.2380  28.0630   C         1 RES1   0.0000
  7857 C2      32.7268   5.4342  36.1136   C         1 RES1   0.0000
  7858 C2      31.4498   5.2380  36.1136   C         1 RES1   0.0000
  7873 C2      36.9804   4.6976  31.9902   C         1 RES1   0.0000
  7874 C2      36.9804   5.9746  32.1864   C         1 RES1   0.0000
  7879 H       31.1163   6.3027  28.0648   H         1 RES1   0.0000
  7880 H       33.0603   4.3695  28.0648   H         1 RES1   0.0000
  7881 H       33.0603   6.3027  36.1118   H         1 RES1   0.0000
  7882 H       31.1163   4.3695  36.1118   H         1 RES1   0.0000
  7897 H       36.9822   4.3641  31.1217   H         1 RES1   0.0000
  7898 H       36.9822   6.3081  33.0549   H         1 RES1   0.0000
  7913 C1      33.6899   0.8774  33.1477   C         1 RES1   0.0000
  7914 C1      30.4867   0.8774  31.0289   C         1 RES1   0.0000
  7937 C2      32.7393   0.8756  31.9688   C         1 RES1   0.0000
  7938 C2      31.4373   0.8756  32.2078   C         1 RES1   0.0000
  7961 H       33.0621   0.8756  31.0967   H         1 RES1   0.0000
  7962 H       31.1145   0.8756  33.0799   H         1 RES1   0.0000
  7987 O2      35.3931   2.2418  34.9115   O         1 RES1   0.0000
  7988 O2      35.3931   8.4304  29.2651   O         1 RES1   0.0000
  8031 Zr      36.7455  10.0067  30.0881   Z         1 RES1   0.0000
  8044 O1      32.8195  11.4267  27.7723   O         1 RES1   0.0000
  8045 O1      31.3571  11.4267  36.4043   O         1 RES1   0.0000
  8052 O1      33.1655   9.6646  29.8821   O         1 RES1   0.0000
  8053 O1      31.0111   9.6646  34.2945   O         1 RES1   0.0000
  8106 O2      35.1470  11.1948  29.0296   O         1 RES1   0.0000
  8111 Zr      34.0885  18.9107   0.6655   Z         1 RES1   0.0000
  8112 Zr      36.3351  16.2537   1.0759   Z         1 RES1   0.0000
  8119 Zr      36.7589  21.1707   0.6789   Z         1 RES1   0.0000
  8121 Zr      36.3485  27.4177   7.3363   Z         1 RES1   0.0000
  8122 Zr      36.3485  18.9241   3.3359   Z         1 RES1   0.0000
  8124 O1      32.8195  17.0803   0.7347   O         1 RES1   0.0000
  8137 O1      36.6897  22.4397   2.5093   O         1 RES1   0.0000
  8138 O1      36.6897  23.9021   8.1629   O         1 RES1   0.0000
  8145 O1      33.1513  20.9344   0.4387   O         1 RES1   0.0000
  8146 O1      31.0253  25.4074   0.4387   O         1 RES1   0.0000
  8147 O1      28.0683  13.1905   3.0996   O         1 RES1   0.0000
  8148 O1      28.0683  15.3165   7.5726   O         1 RES1   0.0000
  8149 O1      36.1083  15.3165   3.0996   O         1 RES1   0.0000
  8150 O1      36.1083  13.1905   7.5726   O         1 RES1   0.0000
  8163 O1      34.3248  27.1909   6.3991   O         1 RES1   0.0000
  8164 O1      29.8518  27.1909   4.2731   O         1 RES1   0.0000
  8165 O1      34.3248  19.1509   4.2731   O         1 RES1   0.0000
  8166 O1      29.8518  19.1509   6.3991   O         1 RES1   0.0000
  8169 O1      29.8821  13.1763   1.0076   O         1 RES1   0.0000
  8171 O1      34.2945  15.3307   1.0076   O         1 RES1   0.0000
  8183 O1      36.4168  25.3771   6.4133   O         1 RES1   0.0000
  8185 O1      36.4168  20.9647   4.2589   O         1 RES1   0.0000
  8187 O1      31.3535  19.1385   8.1790   O         1 RES1   0.0000
  8188 O1      32.8231  27.2033   8.1790   O         1 RES1   0.0000
  8189 O1      32.8231  19.1385   2.4932   O         1 RES1   0.0000
  8190 O1      31.3535  27.2033   2.4932   O         1 RES1   0.0000
  8203 O1      34.9312  22.4361   0.4511   O         1 RES1   0.0000
  8205 O1      36.1207  17.0964   4.6013   O         1 RES1   0.0000
  8206 O1      28.0559  17.0964   6.0709   O         1 RES1   0.0000
  8209 C1      33.6863  22.0848   0.4494   C         1 RES1   0.0000
  8210 C1      30.4903  24.2570   0.4494   C         1 RES1   0.0000
  8211 C1      28.0576  12.6555   4.2500   C         1 RES1   0.0000
  8212 C1      28.0576  15.8515   6.4222   C         1 RES1   0.0000
  8213 C1      36.1190  15.8515   4.2500   C         1 RES1   0.0000
  8214 C1      36.1190  12.6555   6.4222   C         1 RES1   0.0000
  8227 C1      33.1744  27.2016   6.9341   C         1 RES1   0.0000
  8228 C1      31.0022  27.2016   3.7381   C         1 RES1   0.0000
  8229 C1      33.1744  19.1402   3.7381   C         1 RES1   0.0000
  8230 C1      31.0022  19.1402   6.9341   C         1 RES1   0.0000
  8233 C2      32.7268  23.2690   0.4440   C         1 RES1   0.0000
  8234 C2      31.4498  23.0728   0.4440   C         1 RES1   0.0000
  8235 C2      28.0630  13.6150   5.4342   C         1 RES1   0.0000
  8236 C2      28.0630  14.8920   5.2380   C         1 RES1   0.0000
  8237 C2      36.1136  14.8920   5.4342   C         1 RES1   0.0000
  8238 C2      36.1136  13.6150   5.2380   C         1 RES1   0.0000
  8251 C2      31.9902  27.1962   5.9746   C         1 RES1   0.0000
  8252 C2      32.1864  27.1962   4.6976   C         1 RES1   0.0000
  8253 C2      31.9902  19.1456   4.6976   C         1 RES1   0.0000
  8254 C2      32.1864  19.1456   5.9746   C         1 RES1   0.0000
  8257 H       33.0603  24.1375   0.4422   H         1 RES1   0.0000
  8258 H       31.1163  22.2043   0.4422   H         1 RES1   0.0000
  8259 H       28.0648  13.2815   6.3027   H         1 RES1   0.0000
  8260 H       28.0648  15.2255   4.3695   H         1 RES1   0.0000
  8261 H       36.1118  15.2255   6.3027   H         1 RES1   0.0000
  8262 H       36.1118  13.2815   4.3695   H         1 RES1   0.0000
  8275 H       31.1217  27.1944   6.3081   H         1 RES1   0.0000
  8276 H       33.0549  27.1944   4.3641   H         1 RES1   0.0000
  8277 H       31.1217  19.1474   4.3641   H         1 RES1   0.0000
  8278 H       33.0549  19.1474   6.3081   H         1 RES1   0.0000
  8281 C1      33.1477  15.8551   0.8774   C         1 RES1   0.0000
  8282 C1      31.0289  12.6519   0.8774   C         1 RES1   0.0000
  8297 C1      36.5470  22.1115   3.7345   C         1 RES1   0.0000
  8298 C1      36.5470  24.2303   6.9377   C         1 RES1   0.0000
  8305 C2      31.9688  14.9045   0.8756   C         1 RES1   0.0000
  8306 C2      32.2078  13.6025   0.8756   C         1 RES1   0.0000
  8321 C2      36.5488  23.2904   4.6851   C         1 RES1   0.0000
  8322 C2      36.5488  23.0514   5.9871   C         1 RES1   0.0000
  8329 H       31.0967  15.2273   0.8756   H         1 RES1   0.0000
  8330 H       33.0799  13.2797   0.8756   H         1 RES1   0.0000
  8345 H       36.5488  24.1625   4.3623   H         1 RES1   0.0000
  8346 H       36.5488  22.1793   6.3099   H         1 RES1   0.0000
  8351 O2      35.1826  25.9941   8.6409   O         1 RES1   0.0000
  8352 O2      35.1826  20.3477   2.0313   O         1 RES1   0.0000
  8366 O2      34.9115  17.5583   2.2418   O         1 RES1   0.0000
  8367 O2      29.2651  17.5583   8.4304   O         1 RES1   0.0000
  8396 Zr      34.0885  27.4311  10.0067   Z         1 RES1   0.0000
  8402 Zr      36.3351  30.0881   9.5963   Z         1 RES1   0.0000
  8411 Zr      36.7589  25.1711   9.9933   Z         1 RES1   0.0000
  8417 O1      31.3571  29.2615   0.7347   O         1 RES1   0.0000
  8418 O1      27.7723  14.9847  11.4267   O         1 RES1   0.0000
  8419 O1      36.4043  13.5223  11.4267   O         1 RES1   0.0000
  8426 O1      29.8821  15.3307   9.6646   O         1 RES1   0.0000
  8427 O1      34.2945  13.1763   9.6646   O         1 RES1   0.0000
  8438 O1      36.1207  29.2454   6.0709   O         1 RES1   0.0000
  8439 O1      28.0559  29.2454   4.6013   O         1 RES1   0.0000
  8450 O2      34.9115  28.7835   8.4304   O         1 RES1   0.0000
  8451 O2      29.2651  28.7835   2.2418   O         1 RES1   0.0000
  8476 Zr      34.0885  18.9107  18.5003   Z         1 RES1   0.0000
  8477 Zr      36.3351  16.2537  18.9107   Z         1 RES1   0.0000
  8478 Zr      36.7455  18.5003  16.2537   Z         1 RES1   0.0000
  8482 Zr      36.7589  21.1707  18.5137   Z         1 RES1   0.0000
  8483 Zr      36.3485  27.4177  25.1711   Z         1 RES1   0.0000
  8484 Zr      36.3485  18.9241  21.1707   Z         1 RES1   0.0000
  8485 O1      31.3571  17.0803   9.9375   O         1 RES1   0.0000
  8486 O1      32.8195  17.0803  18.5695   O         1 RES1   0.0000
  8487 O1      27.7723  13.5223  17.0803   O         1 RES1   0.0000
  8488 O1      36.4043  14.9847  17.0803   O         1 RES1   0.0000
  8489 O1      34.9151   9.9375  13.5223   O         1 RES1   0.0000
  8490 O1      34.9151  18.5695  14.9847   O         1 RES1   0.0000
  8497 O1      36.6897  22.4397  20.3441   O         1 RES1   0.0000
  8498 O1      36.6897  23.9021  25.9977   O         1 RES1   0.0000
  8503 O1      31.0253  20.9344  10.2335   O         1 RES1   0.0000
  8504 O1      33.1513  25.4074  10.2335   O         1 RES1   0.0000
  8505 O1      33.1513  20.9344  18.2735   O         1 RES1   0.0000
  8506 O1      31.0253  25.4074  18.2735   O         1 RES1   0.0000
  8507 O1      28.0683  13.1905  20.9344   O         1 RES1   0.0000
  8508 O1      28.0683  15.3165  25.4074   O         1 RES1   0.0000
  8509 O1      36.1083  15.3165  20.9344   O         1 RES1   0.0000
  8510 O1      36.1083  13.1905  25.4074   O         1 RES1   0.0000
  8521 O1      36.9857  22.1079  16.4900   O         1 RES1   0.0000
  8522 O1      36.9857  24.2339  12.0170   O         1 RES1   0.0000
  8523 O1      34.3248  27.1909  24.2339   O         1 RES1   0.0000
  8524 O1      29.8518  27.1909  22.1079   O         1 RES1   0.0000
  8525 O1      34.3248  19.1509  22.1079   O         1 RES1   0.0000
  8526 O1      29.8518  19.1509  24.2339   O         1 RES1   0.0000
  8527 O1      31.0111  18.8424  12.0473   O         1 RES1   0.0000
  8528 O1      33.1655  18.8424  16.4597   O         1 RES1   0.0000
  8529 O1      29.8821  13.1763  18.8424   O         1 RES1   0.0000
  8530 O1      34.2945  15.3307  18.8424   O         1 RES1   0.0000
  8531 O1      36.6772  12.0473  13.1763   O         1 RES1   0.0000
  8532 O1      36.6772  16.4597  15.3307   O         1 RES1   0.0000
  8541 O1      36.4168  25.3771  24.2481   O         1 RES1   0.0000
  8543 O1      36.4168  20.9647  22.0937   O         1 RES1   0.0000
  8545 O1      31.3535  19.1385  26.0138   O         1 RES1   0.0000
  8546 O1      32.8231  27.2033  26.0138   O         1 RES1   0.0000
  8547 O1      32.8231  19.1385  20.3280   O         1 RES1   0.0000
  8548 O1      31.3535  27.2033  20.3280   O         1 RES1   0.0000
  8553 O1      36.9733  26.0138  13.5187   O         1 RES1   0.0000
  8555 O1      36.9733  20.3280  14.9883   O         1 RES1   0.0000
  8559 O1      34.9312  22.4361  18.2859   O         1 RES1   0.0000
  8560 O1      34.9312  23.9057  10.2211   O         1 RES1   0.0000
  8561 O1      36.1207  17.0964  22.4361   O         1 RES1   0.0000
  8562 O1      28.0559  17.0964  23.9057   O         1 RES1   0.0000
  8563 C1      30.4903  22.0848  10.2228   C         1 RES1   0.0000
  8564 C1      33.6863  24.2570  10.2228   C         1 RES1   0.0000
  8565 C1      33.6863  22.0848  18.2842   C         1 RES1   0.0000
  8566 C1      30.4903  24.2570  18.2842   C         1 RES1   0.0000
  8567 C1      28.0576  12.6555  22.0848   C         1 RES1   0.0000
  8568 C1      28.0576  15.8515  24.2570   C         1 RES1   0.0000
  8569 C1      36.1190  15.8515  22.0848   C         1 RES1   0.0000
  8570 C1      36.1190  12.6555  24.2570   C         1 RES1   0.0000
  8581 C1      36.9750  21.5729  15.3396   C         1 RES1   0.0000
  8582 C1      36.9750  24.7689  13.1674   C         1 RES1   0.0000
  8583 C1      33.1744  27.2016  24.7689   C         1 RES1   0.0000
  8584 C1      31.0022  27.2016  21.5729   C         1 RES1   0.0000
  8585 C1      33.1744  19.1402  21.5729   C         1 RES1   0.0000
  8586 C1      31.0022  19.1402  24.7689   C         1 RES1   0.0000
  8587 C2      31.4498  23.2690  10.2282   C         1 RES1   0.0000
  8588 C2      32.7268  23.0728  10.2282   C         1 RES1   0.0000
  8589 C2      32.7268  23.2690  18.2788   C         1 RES1   0.0000
  8590 C2      31.4498  23.0728  18.2788   C         1 RES1   0.0000
  8591 C2      28.0630  13.6150  23.2690   C         1 RES1   0.0000
  8592 C2      28.0630  14.8920  23.0728   C         1 RES1   0.0000
  8593 C2      36.1136  14.8920  23.2690   C         1 RES1   0.0000
  8594 C2      36.1136  13.6150  23.0728   C         1 RES1   0.0000
  8605 C2      36.9804  22.5324  14.1554   C         1 RES1   0.0000
  8606 C2      36.9804  23.8094  14.3516   C         1 RES1   0.0000
  8607 C2      31.9902  27.1962  23.8094   C         1 RES1   0.0000
  8608 C2      32.1864  27.1962  22.5324   C         1 RES1   0.0000
  8609 C2      31.9902  19.1456  22.5324   C         1 RES1   0.0000
  8610 C2      32.1864  19.1456  23.8094   C         1 RES1   0.0000
  8611 H       31.1163  24.1375  10.2300   H         1 RES1   0.0000
  8612 H       33.0603  22.2043  10.2300   H         1 RES1   0.0000
  8613 H       33.0603  24.1375  18.2770   H         1 RES1   0.0000
  8614 H       31.1163  22.2043  18.2770   H         1 RES1   0.0000
  8615 H       28.0648  13.2815  24.1375   H         1 RES1   0.0000
  8616 H       28.0648  15.2255  22.2043   H         1 RES1   0.0000
  8617 H       36.1118  15.2255  24.1375   H         1 RES1   0.0000
  8618 H       36.1118  13.2815  22.2043   H         1 RES1   0.0000
  8629 H       36.9822  22.1989  13.2869   H         1 RES1   0.0000
  8630 H       36.9822  24.1429  15.2201   H         1 RES1   0.0000
  8631 H       31.1217  27.1944  24.1429   H         1 RES1   0.0000
  8632 H       33.0549  27.1944  22.1989   H         1 RES1   0.0000
  8633 H       31.1217  19.1474  22.1989   H         1 RES1   0.0000
  8634 H       33.0549  19.1474  24.1429   H         1 RES1   0.0000
  8635 C1      31.0289  15.8551   9.7948   C         1 RES1   0.0000
  8636 C1      33.1477  12.6519   9.7948   C         1 RES1   0.0000
  8637 C1      33.1477  15.8551  18.7122   C         1 RES1   0.0000
  8638 C1      31.0289  12.6519  18.7122   C         1 RES1   0.0000
  8639 C1      27.6296  13.1941  15.8551   C         1 RES1   0.0000
  8640 C1      27.6296  15.3129  12.6519   C         1 RES1   0.0000
  8641 C1      36.5470  15.3129  15.8551   C         1 RES1   0.0000
  8642 C1      36.5470  13.1941  12.6519   C         1 RES1   0.0000
  8643 C1      33.6899   9.7948  13.1941   C         1 RES1   0.0000
  8644 C1      30.4867   9.7948  15.3129   C         1 RES1   0.0000
  8645 C1      33.6899  18.7122  15.3129   C         1 RES1   0.0000
  8646 C1      30.4867  18.7122  13.1941   C         1 RES1   0.0000
  8653 C1      36.5470  22.1115  21.5693   C         1 RES1   0.0000
  8654 C1      36.5470  24.2303  24.7725   C         1 RES1   0.0000
  8659 C2      32.2078  14.9045   9.7966   C         1 RES1   0.0000
  8660 C2      31.9688  13.6025   9.7966   C         1 RES1   0.0000
  8661 C2      31.9688  14.9045  18.7104   C         1 RES1   0.0000
  8662 C2      32.2078  13.6025  18.7104   C         1 RES1   0.0000
  8663 C2      27.6314  14.3730  14.9045   C         1 RES1   0.0000
  8664 C2      27.6314  14.1340  13.6025   C         1 RES1   0.0000
  8665 C2      36.5452  14.1340  14.9045   C         1 RES1   0.0000
  8666 C2      36.5452  14.3730  13.6025   C         1 RES1   0.0000
  8667 C2      32.7393   9.7966  14.3730   C         1 RES1   0.0000
  8668 C2      31.4373   9.7966  14.1340   C         1 RES1   0.0000
  8669 C2      32.7393  18.7104  14.1340   C         1 RES1   0.0000
  8670 C2      31.4373  18.7104  14.3730   C         1 RES1   0.0000
  8677 C2      36.5488  23.2904  22.5199   C         1 RES1   0.0000
  8678 C2      36.5488  23.0514  23.8219   C         1 RES1   0.0000
  8683 H       33.0799  15.2273   9.7966   H         1 RES1   0.0000
  8684 H       31.0967  13.2797   9.7966   H         1 RES1   0.0000
  8685 H       31.0967  15.2273  18.7104   H         1 RES1   0.0000
  8686 H       33.0799  13.2797  18.7104   H         1 RES1   0.0000
  8687 H       27.6314  15.2451  15.2273   H         1 RES1   0.0000
  8688 H       27.6314  13.2619  13.2797   H         1 RES1   0.0000
  8689 H       36.5452  13.2619  15.2273   H         1 RES1   0.0000
  8690 H       36.5452  15.2451  13.2797   H         1 RES1   0.0000
  8691 H       33.0621   9.7966  15.2451   H         1 RES1   0.0000
  8692 H       31.1145   9.7966  13.2619   H         1 RES1   0.0000
  8693 H       33.0621  18.7104  13.2619   H         1 RES1   0.0000
  8694 H       31.1145  18.7104  15.2451   H         1 RES1   0.0000
  8701 H       36.5488  24.1625  22.1971   H         1 RES1   0.0000
  8702 H       36.5488  22.1793  24.1447   H         1 RES1   0.0000
  8707 O2      35.1826  25.9941  26.4757   O         1 RES1   0.0000
  8708 O2      35.1826  20.3477  19.8661   O         1 RES1   0.0000
  8717 O2      35.3931  20.0766  17.0767   O         1 RES1   0.0000
  8718 O2      35.3931  26.2652  11.4303   O         1 RES1   0.0000
  8719 O2      34.9115  17.5583  20.0766   O         1 RES1   0.0000
  8720 O2      29.2651  17.5583  26.2652   O         1 RES1   0.0000
  8740 O2      35.1470  17.3122  17.3122   O         1 RES1   0.0000
  8746 Zr      34.0885  27.4311  27.8415   Z         1 RES1   0.0000
  8750 Zr      36.3351  30.0881  27.4311   Z         1 RES1   0.0000
  8751 Zr      36.7455  27.8415  12.2533   Z         1 RES1   0.0000
  8757 Zr      36.7589  25.1711  27.8281   Z         1 RES1   0.0000
  8760 O1      32.8195  29.2615   9.9375   O         1 RES1   0.0000
  8761 O1      31.3571  29.2615  18.5695   O         1 RES1   0.0000
  8762 O1      27.7723  14.9847  29.2615   O         1 RES1   0.0000
  8763 O1      36.4043  13.5223  29.2615   O         1 RES1   0.0000
  8766 O1      33.1655  27.4994  12.0473   O         1 RES1   0.0000
  8767 O1      31.0111  27.4994  16.4597   O         1 RES1   0.0000
  8768 O1      29.8821  15.3307  27.4994   O         1 RES1   0.0000
  8769 O1      34.2945  13.1763  27.4994   O         1 RES1   0.0000
  8776 O1      36.1207  29.2454  23.9057   O         1 RES1   0.0000
  8777 O1      28.0559  29.2454  22.4361   O         1 RES1   0.0000
  8786 O2      34.9115  28.7835  26.2652   O         1 RES1   0.0000
  8787 O2      29.2651  28.7835  20.0766   O         1 RES1   0.0000
  8802 O2      35.1470  29.0296  11.1948   O         1 RES1   0.0000
  8804 Zr      34.0885  18.9107  36.3351   Z         1 RES1   0.0000
  8805 Zr      36.3351  16.2537  36.7455   Z         1 RES1   0.0000
  8806 Zr      36.7455  18.5003  34.0885   Z         1 RES1   0.0000
  8810 Zr      36.7589  21.1707  36.3485   Z         1 RES1   0.0000
  8813 O1      31.3571  17.0803  27.7723   O         1 RES1   0.0000
  8814 O1      32.8195  17.0803  36.4043   O         1 RES1   0.0000
  8815 O1      27.7723  13.5223  34.9151   O         1 RES1   0.0000
  8816 O1      36.4043  14.9847  34.9151   O         1 RES1   0.0000
  8817 O1      34.9151   9.9375  31.3571   O         1 RES1   0.0000
  8818 O1      34.9151  18.5695  32.8195   O         1 RES1   0.0000
  8831 O1      31.0253  20.9344  28.0683   O         1 RES1   0.0000
  8832 O1      33.1513  25.4074  28.0683   O         1 RES1   0.0000
  8833 O1      33.1513  20.9344  36.1083   O         1 RES1   0.0000
  8834 O1      31.0253  25.4074  36.1083   O         1 RES1   0.0000
  8849 O1      36.9857  22.1079  34.3248   O         1 RES1   0.0000
  8850 O1      36.9857  24.2339  29.8518   O         1 RES1   0.0000
  8855 O1      31.0111  18.8424  29.8821   O         1 RES1   0.0000
  8856 O1      33.1655  18.8424  34.2945   O         1 RES1   0.0000
  8857 O1      29.8821  13.1763  36.6772   O         1 RES1   0.0000
  8858 O1      34.2945  15.3307  36.6772   O         1 RES1   0.0000
  8859 O1      36.6772  12.0473  31.0111   O         1 RES1   0.0000
  8860 O1      36.6772  16.4597  33.1655   O         1 RES1   0.0000
  8881 O1      36.9733  26.0138  31.3535   O         1 RES1   0.0000
  8883 O1      36.9733  20.3280  32.8231   O         1 RES1   0.0000
  8887 O1      34.9312  22.4361  36.1207   O         1 RES1   0.0000
  8888 O1      34.9312  23.9057  28.0559   O         1 RES1   0.0000
  8891 C1      30.4903  22.0848  28.0576   C         1 RES1   0.0000
  8892 C1      33.6863  24.2570  28.0576   C         1 RES1   0.0000
  8893 C1      33.6863  22.0848  36.1190   C         1 RES1   0.0000
  8894 C1      30.4903  24.2570  36.1190   C         1 RES1   0.0000
  8909 C1      36.9750  21.5729  33.1744   C         1 RES1   0.0000
  8910 C1      36.9750  24.7689  31.0022   C         1 RES1   0.0000
  8915 C2      31.4498  23.2690  28.0630   C         1 RES1   0.0000
  8916 C2      32.7268  23.0728  28.0630   C         1 RES1   0.0000
  8917 C2      32.7268  23.2690  36.1136   C         1 RES1   0.0000
  8918 C2      31.4498  23.0728  36.1136   C         1 RES1   0.0000
  8933 C2      36.9804  22.5324  31.9902   C         1 RES1   0.0000
  8934 C2      36.9804  23.8094  32.1864   C         1 RES1   0.0000
  8939 H       31.1163  24.1375  28.0648   H         1 RES1   0.0000
  8940 H       33.0603  22.2043  28.0648   H         1 RES1   0.0000
  8941 H       33.0603  24.1375  36.1118   H         1 RES1   0.0000
  8942 H       31.1163  22.2043  36.1118   H         1 RES1   0.0000
  8957 H       36.9822  22.1989  31.1217   H         1 RES1   0.0000
  8958 H       36.9822  24.1429  33.0549   H         1 RES1   0.0000
  8963 C1      31.0289  15.8551  27.6296   C         1 RES1   0.0000
  8964 C1      33.1477  12.6519  27.6296   C         1 RES1   0.0000
  8965 C1      33.1477  15.8551  36.5470   C         1 RES1   0.0000
  8966 C1      31.0289  12.6519  36.5470   C         1 RES1   0.0000
  8967 C1      27.6296  13.1941  33.6899   C         1 RES1   0.0000
  8968 C1      27.6296  15.3129  30.4867   C         1 RES1   0.0000
  8969 C1      36.5470  15.3129  33.6899   C         1 RES1   0.0000
  8970 C1      36.5470  13.1941  30.4867   C         1 RES1   0.0000
  8971 C1      33.6899   9.7948  31.0289   C         1 RES1   0.0000
  8972 C1      30.4867   9.7948  33.1477   C         1 RES1   0.0000
  8973 C1      33.6899  18.7122  33.1477   C         1 RES1   0.0000
  8974 C1      30.4867  18.7122  31.0289   C         1 RES1   0.0000
  8987 C2      32.2078  14.9045  27.6314   C         1 RES1   0.0000
  8988 C2      31.9688  13.6025  27.6314   C         1 RES1   0.0000
  8989 C2      31.9688  14.9045  36.5452   C         1 RES1   0.0000
  8990 C2      32.2078  13.6025  36.5452   C         1 RES1   0.0000
  8991 C2      27.6314  14.3730  32.7393   C         1 RES1   0.0000
  8992 C2      27.6314  14.1340  31.4373   C         1 RES1   0.0000
  8993 C2      36.5452  14.1340  32.7393   C         1 RES1   0.0000
  8994 C2      36.5452  14.3730  31.4373   C         1 RES1   0.0000
  8995 C2      32.7393   9.7966  32.2078   C         1 RES1   0.0000
  8996 C2      31.4373   9.7966  31.9688   C         1 RES1   0.0000
  8997 C2      32.7393  18.7104  31.9688   C         1 RES1   0.0000
  8998 C2      31.4373  18.7104  32.2078   C         1 RES1   0.0000
  9011 H       33.0799  15.2273  27.6314   H         1 RES1   0.0000
  9012 H       31.0967  13.2797  27.6314   H         1 RES1   0.0000
  9013 H       31.0967  15.2273  36.5452   H         1 RES1   0.0000
  9014 H       33.0799  13.2797  36.5452   H         1 RES1   0.0000
  9015 H       27.6314  15.2451  33.0621   H         1 RES1   0.0000
  9016 H       27.6314  13.2619  31.1145   H         1 RES1   0.0000
  9017 H       36.5452  13.2619  33.0621   H         1 RES1   0.0000
  9018 H       36.5452  15.2451  31.1145   H         1 RES1   0.0000
  9019 H       33.0621   9.7966  33.0799   H         1 RES1   0.0000
  9020 H       31.1145   9.7966  31.0967   H         1 RES1   0.0000
  9021 H       33.0621  18.7104  31.0967   H         1 RES1   0.0000
  9022 H       31.1145  18.7104  33.0799   H         1 RES1   0.0000
  9046 O2      35.3931  20.0766  34.9115   O         1 RES1   0.0000
  9047 O2      35.3931  26.2652  29.2651   O         1 RES1   0.0000
  9070 O2      35.1470  17.3122  35.1470   O         1 RES1   0.0000
  9083 Zr      36.7455  27.8415  30.0881   Z         1 RES1   0.0000
  9092 O1      32.8195  29.2615  27.7723   O         1 RES1   0.0000
  9093 O1      31.3571  29.2615  36.4043   O         1 RES1   0.0000
  9098 O1      33.1655  27.4994  29.8821   O         1 RES1   0.0000
  9099 O1      31.0111  27.4994  34.2945   O         1 RES1   0.0000
  9140 O2      35.1470  29.0296  29.0296   O         1 RES1   0.0000
  9143 Zr      34.0885  36.7455   0.6655   Z         1 RES1   0.0000
  9144 Zr      36.3351  34.0885   1.0759   Z         1 RES1   0.0000
  9154 Zr      36.3485  36.7589   3.3359   Z         1 RES1   0.0000
  9156 O1      32.8195  34.9151   0.7347   O         1 RES1   0.0000
  9179 O1      28.0683  31.0253   3.0996   O         1 RES1   0.0000
  9180 O1      28.0683  33.1513   7.5726   O         1 RES1   0.0000
  9181 O1      36.1083  33.1513   3.0996   O         1 RES1   0.0000
  9182 O1      36.1083  31.0253   7.5726   O         1 RES1   0.0000
  9197 O1      34.3248  36.9857   4.2731   O         1 RES1   0.0000
  9198 O1      29.8518  36.9857   6.3991   O         1 RES1   0.0000
  9201 O1      29.8821  31.0111   1.0076   O         1 RES1   0.0000
  9203 O1      34.2945  33.1655   1.0076   O         1 RES1   0.0000
  9219 O1      31.3535  36.9733   8.1790   O         1 RES1   0.0000
  9221 O1      32.8231  36.9733   2.4932   O         1 RES1   0.0000
  9237 O1      36.1207  34.9312   4.6013   O         1 RES1   0.0000
  9238 O1      28.0559  34.9312   6.0709   O         1 RES1   0.0000
  9243 C1      28.0576  30.4903   4.2500   C         1 RES1   0.0000
  9244 C1      28.0576  33.6863   6.4222   C         1 RES1   0.0000
  9245 C1      36.1190  33.6863   4.2500   C         1 RES1   0.0000
  9246 C1      36.1190  30.4903   6.4222   C         1 RES1   0.0000
  9261 C1      33.1744  36.9750   3.7381   C         1 RES1   0.0000
  9262 C1      31.0022  36.9750   6.9341   C         1 RES1   0.0000
  9267 C2      28.0630  31.4498   5.4342   C         1 RES1   0.0000
  9268 C2      28.0630  32.7268   5.2380   C         1 RES1   0.0000
  9269 C2      36.1136  32.7268   5.4342   C         1 RES1   0.0000
  9270 C2      36.1136  31.4498   5.2380   C         1 RES1   0.0000
  9285 C2      31.9902  36.9804   4.6976   C         1 RES1   0.0000
  9286 C2      32.1864  36.9804   5.9746   C         1 RES1   0.0000
  9291 H       28.0648  31.1163   6.3027   H         1 RES1   0.0000
  9292 H       28.0648  33.0603   4.3695   H         1 RES1   0.0000
  9293 H       36.1118  33.0603   6.3027   H         1 RES1   0.0000
  9294 H       36.1118  31.1163   4.3695   H         1 RES1   0.0000
  9309 H       31.1217  36.9822   4.3641   H         1 RES1   0.0000
  9310 H       33.0549  36.9822   6.3081   H         1 RES1   0.0000
  9313 C1      33.1477  33.6899   0.8774   C         1 RES1   0.0000
  9314 C1      31.0289  30.4867   0.8774   C         1 RES1   0.0000
  9337 C2      31.9688  32.7393   0.8756   C         1 RES1   0.0000
  9338 C2      32.2078  31.4373   0.8756   C         1 RES1   0.0000
  9361 H       31.0967  33.0621   0.8756   H         1 RES1   0.0000
  9362 H       33.0799  31.1145   0.8756   H         1 RES1   0.0000
  9398 O2      34.9115  35.3931   2.2418   O         1 RES1   0.0000
  9399 O2      29.2651  35.3931   8.4304   O         1 RES1   0.0000
  9451 O1      27.7723  32.8195  11.4267   O         1 RES1   0.0000
  9452 O1      36.4043  31.3571  11.4267   O         1 RES1   0.0000
  9459 O1      29.8821  33.1655   9.6646   O         1 RES1   0.0000
  9460 O1      34.2945  31.0111   9.6646   O         1 RES1   0.0000
  9513 Zr      34.0885  36.7455  18.5003   Z         1 RES1   0.0000
  9514 Zr      36.3351  34.0885  18.9107   Z         1 RES1   0.0000
  9515 Zr      36.7455  36.3351  16.2537   Z         1 RES1   0.0000
  9521 Zr      36.3485  36.7589  21.1707   Z         1 RES1   0.0000
  9522 O1      31.3571  34.9151   9.9375   O         1 RES1   0.0000
  9523 O1      32.8195  34.9151  18.5695   O         1 RES1   0.0000
  9524 O1      27.7723  31.3571  17.0803   O         1 RES1   0.0000
  9525 O1      36.4043  32.8195  17.0803   O         1 RES1   0.0000
  9526 O1      34.9151  27.7723  13.5223   O         1 RES1   0.0000
  9527 O1      34.9151  36.4043  14.9847   O         1 RES1   0.0000
  9544 O1      28.0683  31.0253  20.9344   O         1 RES1   0.0000
  9545 O1      28.0683  33.1513  25.4074   O         1 RES1   0.0000
  9546 O1      36.1083  33.1513  20.9344   O         1 RES1   0.0000
  9547 O1      36.1083  31.0253  25.4074   O         1 RES1   0.0000
  9562 O1      34.3248  36.9857  22.1079   O         1 RES1   0.0000
  9563 O1      29.8518  36.9857  24.2339   O         1 RES1   0.0000
  9564 O1      31.0111  36.6772  12.0473   O         1 RES1   0.0000
  9565 O1      33.1655  36.6772  16.4597   O         1 RES1   0.0000
  9566 O1      29.8821  31.0111  18.8424   O         1 RES1   0.0000
  9567 O1      34.2945  33.1655  18.8424   O         1 RES1   0.0000
  9568 O1      36.6772  29.8821  13.1763   O         1 RES1   0.0000
  9569 O1      36.6772  34.2945  15.3307   O         1 RES1   0.0000
  9582 O1      31.3535  36.9733  26.0138   O         1 RES1   0.0000
  9584 O1      32.8231  36.9733  20.3280   O         1 RES1   0.0000
  9598 O1      36.1207  34.9312  22.4361   O         1 RES1   0.0000
  9599 O1      28.0559  34.9312  23.9057   O         1 RES1   0.0000
  9604 C1      28.0576  30.4903  22.0848   C         1 RES1   0.0000
  9605 C1      28.0576  33.6863  24.2570   C         1 RES1   0.0000
  9606 C1      36.1190  33.6863  22.0848   C         1 RES1   0.0000
  9607 C1      36.1190  30.4903  24.2570   C         1 RES1   0.0000
  9622 C1      33.1744  36.9750  21.5729   C         1 RES1   0.0000
  9623 C1      31.0022  36.9750  24.7689   C         1 RES1   0.0000
  9628 C2      28.0630  31.4498  23.2690   C         1 RES1   0.0000
  9629 C2      28.0630  32.7268  23.0728   C         1 RES1   0.0000
  9630 C2      36.1136  32.7268  23.2690   C         1 RES1   0.0000
  9631 C2      36.1136  31.4498  23.0728   C         1 RES1   0.0000
  9646 C2      31.9902  36.9804  22.5324   C         1 RES1   0.0000
  9647 C2      32.1864  36.9804  23.8094   C         1 RES1   0.0000
  9652 H       28.0648  31.1163  24.1375   H         1 RES1   0.0000
  9653 H       28.0648  33.0603  22.2043   H         1 RES1   0.0000
  9654 H       36.1118  33.0603  24.1375   H         1 RES1   0.0000
  9655 H       36.1118  31.1163  22.2043   H         1 RES1   0.0000
  9670 H       31.1217  36.9822  22.1989   H         1 RES1   0.0000
  9671 H       33.0549  36.9822  24.1429   H         1 RES1   0.0000
  9672 C1      31.0289  33.6899   9.7948   C         1 RES1   0.0000
  9673 C1      33.1477  30.4867   9.7948   C         1 RES1   0.0000
  9674 C1      33.1477  33.6899  18.7122   C         1 RES1   0.0000
  9675 C1      31.0289  30.4867  18.7122   C         1 RES1   0.0000
  9676 C1      27.6296  31.0289  15.8551   C         1 RES1   0.0000
  9677 C1      27.6296  33.1477  12.6519   C         1 RES1   0.0000
  9678 C1      36.5470  33.1477  15.8551   C         1 RES1   0.0000
  9679 C1      36.5470  31.0289  12.6519   C         1 RES1   0.0000
  9680 C1      33.6899  27.6296  13.1941   C         1 RES1   0.0000
  9681 C1      30.4867  27.6296  15.3129   C         1 RES1   0.0000
  9682 C1      33.6899  36.5470  15.3129   C         1 RES1   0.0000
  9683 C1      30.4867  36.5470  13.1941   C         1 RES1   0.0000
  9696 C2      32.2078  32.7393   9.7966   C         1 RES1   0.0000
  9697 C2      31.9688  31.4373   9.7966   C         1 RES1   0.0000
  9698 C2      31.9688  32.7393  18.7104   C         1 RES1   0.0000
  9699 C2      32.2078  31.4373  18.7104   C         1 RES1   0.0000
  9700 C2      27.6314  32.2078  14.9045   C         1 RES1   0.0000
  9701 C2      27.6314  31.9688  13.6025   C         1 RES1   0.0000
  9702 C2      36.5452  31.9688  14.9045   C         1 RES1   0.0000
  9703 C2      36.5452  32.2078  13.6025   C         1 RES1   0.0000
  9704 C2      32.7393  27.6314  14.3730   C         1 RES1   0.0000
  9705 C2      31.4373  27.6314  14.1340   C         1 RES1   0.0000
  9706 C2      32.7393  36.5452  14.1340   C         1 RES1   0.0000
  9707 C2      31.4373  36.5452  14.3730   C         1 RES1   0.0000
  9720 H       33.0799  33.0621   9.7966   H         1 RES1   0.0000
  9721 H       31.0967  31.1145   9.7966   H         1 RES1   0.0000
  9722 H       31.0967  33.0621  18.7104   H         1 RES1   0.0000
  9723 H       33.0799  31.1145  18.7104   H         1 RES1   0.0000
  9724 H       27.6314  33.0799  15.2273   H         1 RES1   0.0000
  9725 H       27.6314  31.0967  13.2797   H         1 RES1   0.0000
  9726 H       36.5452  31.0967  15.2273   H         1 RES1   0.0000
  9727 H       36.5452  33.0799  13.2797   H         1 RES1   0.0000
  9728 H       33.0621  27.6314  15.2451   H         1 RES1   0.0000
  9729 H       31.1145  27.6314  13.2619   H         1 RES1   0.0000
  9730 H       33.0621  36.5452  13.2619   H         1 RES1   0.0000
  9731 H       31.1145  36.5452  15.2451   H         1 RES1   0.0000
  9756 O2      34.9115  35.3931  20.0766   O         1 RES1   0.0000
  9757 O2      29.2651  35.3931  26.2652   O         1 RES1   0.0000
  9777 O2      35.1470  35.1470  17.3122   O         1 RES1   0.0000
  9800 O1      27.7723  32.8195  29.2615   O         1 RES1   0.0000
  9801 O1      36.4043  31.3571  29.2615   O         1 RES1   0.0000
  9806 O1      29.8821  33.1655  27.4994   O         1 RES1   0.0000
  9807 O1      34.2945  31.0111  27.4994   O         1 RES1   0.0000
  9846 Zr      34.0885  36.7455  36.3351   Z         1 RES1   0.0000
  9847 Zr      36.3351  34.0885  36.7455   Z         1 RES1   0.0000
  9848 Zr      36.7455  36.3351  34.0885   Z         1 RES1   0.0000
  9855 O1      31.3571  34.9151  27.7723   O         1 RES1   0.0000
  9856 O1      32.8195  34.9151  36.4043   O         1 RES1   0.0000
  9857 O1      27.7723  31.3571  34.9151   O         1 RES1   0.0000
  9858 O1      36.4043  32.8195  34.9151   O         1 RES1   0.0000
  9859 O1      34.9151  27.7723  31.3571   O         1 RES1   0.0000
  9860 O1      34.9151  36.4043  32.8195   O         1 RES1   0.0000
  9897 O1      31.0111  36.6772  29.8821   O         1 RES1   0.0000
  9898 O1      33.1655  36.6772  34.2945   O         1 RES1   0.0000
  9899 O1      29.8821  31.0111  36.6772   O         1 RES1   0.0000
  9900 O1      34.2945  33.1655  36.6772   O         1 RES1   0.0000
  9901 O1      36.6772  29.8821  31.0111   O         1 RES1   0.0000
  9902 O1      36.6772  34.2945  33.1655   O         1 RES1   0.0000
 10005 C1      31.0289  33.6899  27.6296   C         1 RES1   0.0000
 10006 C1      33.1477  30.4867  27.6296   C         1 RES1   0.0000
 10007 C1      33.1477  33.6899  36.5470   C         1 RES1   0.0000
 10008 C1      31.0289  30.4867  36.5470   C         1 RES1   0.0000
 10009 C1      27.6296  31.0289  33.6899   C         1 RES1   0.0000
 10010 C1      27.6296  33.1477  30.4867   C         1 RES1   0.0000
 10011 C1      36.5470  33.1477  33.6899   C         1 RES1   0.0000
 10012 C1      36.5470  31.0289  30.4867   C         1 RES1   0.0000
 10013 C1      33.6899  27.6296  31.0289   C         1 RES1   0.0000
 10014 C1      30.4867  27.6296  33.1477   C         1 RES1   0.0000
 10015 C1      33.6899  36.5470  33.1477   C         1 RES1   0.0000
 10016 C1      30.4867  36.5470  31.0289   C         1 RES1   0.0000
 10029 C2      32.2078  32.7393  27.6314   C         1 RES1   0.0000
 10030 C2      31.9688  31.4373  27.6314   C         1 RES1   0.0000
 10031 C2      31.9688  32.7393  36.5452   C         1 RES1   0.0000
 10032 C2      32.2078  31.4373  36.5452   C         1 RES1   0.0000
 10033 C2      27.6314  32.2078  32.7393   C         1 RES1   0.0000
 10034 C2      27.6314  31.9688  31.4373   C         1 RES1   0.0000
 10035 C2      36.5452  31.9688  32.7393   C         1 RES1   0.0000
 10036 C2      36.5452  32.2078  31.4373   C         1 RES1   0.0000
 10037 C2      32.7393  27.6314  32.2078   C         1 RES1   0.0000
 10038 C2      31.4373  27.6314  31.9688   C         1 RES1   0.0000
 10039 C2      32.7393  36.5452  31.9688   C         1 RES1   0.0000
 10040 C2      31.4373  36.5452  32.2078   C         1 RES1   0.0000
 10053 H       33.0799  33.0621  27.6314   H         1 RES1   0.0000
 10054 H       31.0967  31.1145  27.6314   H         1 RES1   0.0000
 10055 H       31.0967  33.0621  36.5452   H         1 RES1   0.0000
 10056 H       33.0799  31.1145  36.5452   H         1 RES1   0.0000
 10057 H       27.6314  33.0799  33.0621   H         1 RES1   0.0000
 10058 H       27.6314  31.0967  31.1145   H         1 RES1   0.0000
 10059 H       36.5452  31.0967  33.0621   H         1 RES1   0.0000
 10060 H       36.5452  33.0799  31.1145   H         1 RES1   0.0000
 10061 H       33.0621  27.6314  33.0799   H         1 RES1   0.0000
 10062 H       31.1145  27.6314  31.0967   H         1 RES1   0.0000
 10063 H       33.0621  36.5452  31.0967   H         1 RES1   0.0000
 10064 H       31.1145  36.5452  33.0799   H         1 RES1   0.0000
 10112 O2      35.1470  35.1470  35.1470   O         1 RES1   0.0000
@<TRIPOS>BOND     1     1     7   un
     2     1    19   un
     3     1    67   un
     4     1    73   un
     5     1    76   un
     6     1    79   un
     7     1    80   un
     8     1    85   un
     9     2     4   un
    10     2     6   un
    11     2     9   un
    12     2    21   un
    13     2    69   un
    14     3    11   un
    15     3    23   un
    16     3    70   un
    17     3    71   un
    18     3    75   un
    19     3    78   un
    20     3    81   un
    21     3    83   un
    22     4     6   un
    23     4    13   un
    24     4    25   un
    25     4    69   un
    26     5    15   un
    27     5    27   un
    28     5    68   un
    29     5    72   un
    30     5    74   un
    31     5    77   un
    32     5    82   un
    33     5    84   un
    34     6    17   un
    35     6    29   un
    36     6    69   un
    37     7    31   un
    38     8    32   un
    39     8    74   un
    40     9    33   un
    41    10    34   un
    42    10    75   un
    43    11    35   un
    44    12    36   un
    45    12    76   un
    46    13    37   un
    47    14    38   un
    48    14    77   un
    49    15    39   un
    50    16    40   un
    51    16    78   un
    52    17    41   un
    53    18    42   un
    54    18    79   un
    55    19    42   un
    56    20    39   un
    57    20    74   un
    58    21    41   un
    59    22    40   un
    60    22    75   un
    61    23    34   un
    62    24    31   un
    63    24    76   un
    64    25    33   un
    65    26    32   un
    66    26    77   un
    67    27    38   un
    68    28    35   un
    69    28    78   un
    70    29    37   un
    71    30    36   un
    72    30    79   un
    73    31    43   un
    74    32    44   un
    75    33    45   un
    76    34    46   un
    77    35    47   un
    78    36    48   un
    79    37    49   un
    80    38    50   un
    81    39    51   un
    82    40    52   un
    83    41    53   un
    84    42    54   un
    85    43    44   un
    86    43    55   un
    87    44    56   un
    88    45    46   un
    89    45    57   un
    90    46    58   un
    91    47    48   un
    92    47    59   un
    93    48    60   un
    94    49    50   un
    95    49    61   un
    96    50    62   un
    97    51    52   un
    98    51    63   un
    99    52    64   un
   100    53    54   un
   101    53    65   un
   102    54    66   un
   103    67    76   un
   104    67    79   un
   105    68    74   un
   106    68    77   un
   107    70    75   un
   108    70    78   un
   109    71    78   un
   110    71    83   un
   111    71   373   un
   112    71   894   un
   113    71   914   un
   114    71   986   un
   115    71   995   un
   116    72    74   un
   117    72    84   un
   118    72   192   un
   119    72   289   un
   120    72   309   un
   121    72   383   un
   122    72   392   un
   123    73    76   un
   124    73    85   un
   125    73   106   un
   126    73   126   un
   127    73   189   un
   128    73   201   un
   129    73   211   un
   130    74    77   un
   131    74    84   un
   132    74   182   un
   133    74   192   un
   134    74   291   un
   135    74   385   un
   136    74   392   un
   137    75    78   un
   138    75   293   un
   139    75   365   un
   140    75   373   un
   141    76    79   un
   142    76    85   un
   143    76   108   un
   144    76   189   un
   145    76   204   un
   146    76   206   un
   147    76   211   un
   148    77   110   un
   149    77   182   un
   150    77   192   un
   151    78    83   un
   152    78   365   un
   153    78   373   un
   154    78   896   un
   155    78   990   un
   156    78   995   un
   157    79   189   un
   158    79   206   un
   159    79   898   un
   160    80   129   un
   161    81   917   un
   162    82   312   un
   163    86    88   un
   164    86    90   un
   165    86   105   un
   166    86   125   un
   167    86   184   un
   168    87    93   un
   169    87   111   un
   170    87   185   un
   171    87   194   un
   172    87   197   un
   173    87   200   un
   174    87   202   un
   175    87   209   un
   176    88    90   un
   177    88    92   un
   178    88    95   un
   179    88   113   un
   180    88   127   un
   181    88   184   un
   182    88   187   un
   183    89    97   un
   184    89   107   un
   185    89   115   un
   186    89   183   un
   187    89   188   un
   188    89   190   un
   189    89   193   un
   190    89   196   un
   191    89   199   un
   192    89   203   un
   193    89   207   un
   194    89   210   un
   195    90    92   un
   196    90    99   un
   197    90   109   un
   198    90   117   un
   199    90   184   un
   200    90   187   un
   201    91   101   un
   202    91   119   un
   203    91   186   un
   204    91   191   un
   205    91   195   un
   206    91   198   un
   207    91   205   un
   208    91   208   un
   209    92   103   un
   210    92   121   un
   211    92   187   un
   212    93   146   un
   213    94   147   un
   214    94   195   un
   215    95   148   un
   216    96   149   un
   217    96   196   un
   218    97   150   un
   219    98   151   un
   220    98   197   un
   221    99   152   un
   222   100   153   un
   223   100   198   un
   224   101   154   un
   225   102   155   un
   226   102   199   un
   227   103   156   un
   228   104   157   un
   229   104   200   un
   230   105   128   un
   231   106   129   un
   232   107   130   un
   233   108   131   un
   234   109   132   un
   235   110   133   un
   236   111   157   un
   237   112   154   un
   238   112   195   un
   239   113   156   un
   240   114   155   un
   241   114   196   un
   242   115   149   un
   243   116   146   un
   244   116   197   un
   245   117   148   un
   246   118   147   un
   247   118   198   un
   248   119   153   un
   249   120   150   un
   250   120   199   un
   251   121   152   un
   252   122   151   un
   253   122   200   un
   254   123   133   un
   255   123   192   un
   256   124   130   un
   257   124   193   un
   258   125   132   un
   259   126   131   un
   260   127   128   un
   261   128   134   un
   262   129   135   un
   263   130   136   un
   264   131   137   un
   265   132   138   un
   266   133   139   un
   267   134   135   un
   268   134   140   un
   269   135   141   un
   270   136   137   un
   271   136   142   un
   272   137   143   un
   273   138   139   un
   274   138   144   un
   275   139   145   un
   276   146   158   un
   277   147   159   un
   278   148   160   un
   279   149   161   un
   280   150   162   un
   281   151   163   un
   282   152   164   un
   283   153   165   un
   284   154   166   un
   285   155   167   un
   286   156   168   un
   287   157   169   un
   288   158   159   un
   289   158   170   un
   290   159   171   un
   291   160   161   un
   292   160   172   un
   293   161   173   un
   294   162   163   un
   295   162   174   un
   296   163   175   un
   297   164   165   un
   298   164   176   un
   299   165   177   un
   300   166   167   un
   301   166   178   un
   302   167   179   un
   303   168   169   un
   304   168   180   un
   305   169   181   un
   306   182   192   un
   307   183   193   un
   308   183   196   un
   309   185   197   un
   310   185   200   un
   311   186   195   un
   312   186   198   un
   313   188   196   un
   314   188   199   un
   315   189   206   un
   316   189   211   un
   317   189   911   un
   318   189  1017   un
   319   189  1031   un
   320   190   193   un
   321   190   199   un
   322   190   207   un
   323   190   210   un
   324   190   551   un
   325   190   582   un
   326   190  1020   un
   327   190  1048   un
   328   190  1165   un
   329   190  1168   un
   330   190  1181   un
   331   191   195   un
   332   191   208   un
   333   191   260   un
   334   191   415   un
   335   191   445   un
   336   191   563   un
   337   191   578   un
   338   192   392   un
   339   192   416   un
   340   192   428   un
   341   193   196   un
   342   193   210   un
   343   193   417   un
   344   193   544   un
   345   193   551   un
   346   193   564   un
   347   193   566   un
   348   193   582   un
   349   194   197   un
   350   194   209   un
   351   194   219   un
   352   194   229   un
   353   194   258   un
   354   194   263   un
   355   194   268   un
   356   195   198   un
   357   195   208   un
   358   195   255   un
   359   195   260   un
   360   195   421   un
   361   195   569   un
   362   195   578   un
   363   196   199   un
   364   196   423   un
   365   196   451   un
   366   196   537   un
   367   196   544   un
   368   196   551   un
   369   197   200   un
   370   197   209   un
   371   197   221   un
   372   197   258   un
   373   197   265   un
   374   197   266   un
   375   197   268   un
   376   198   223   un
   377   198   255   un
   378   198   260   un
   379   199   207   un
   380   199   537   un
   381   199   551   un
   382   199  1028   un
   383   199  1173   un
   384   199  1181   un
   385   200   258   un
   386   200   266   un
   387   200  1030   un
   388   201  1099   un
   389   202   232   un
   390   203  1059   un
   391   204  1056   un
   392   205   454   un
   393   212   213   un
   394   212   215   un
   395   212   218   un
   396   212   228   un
   397   212   257   un
   398   213   215   un
   399   213   216   un
   400   213   230   un
   401   213   257   un
   402   214   220   un
   403   214   224   un
   404   214   256   un
   405   214   259   un
   406   214   261   un
   407   214   262   un
   408   214   264   un
   409   214   267   un
   410   215   222   un
   411   215   225   un
   412   215   257   un
   413   216   249   un
   414   217   250   un
   415   217   262   un
   416   218   231   un
   417   219   232   un
   418   220   233   un
   419   221   234   un
   420   222   235   un
   421   223   236   un
   422   224   250   un
   423   225   249   un
   424   226   236   un
   425   226   260   un
   426   227   233   un
   427   227   261   un
   428   228   235   un
   429   229   234   un
   430   230   231   un
   431   231   237   un
   432   232   238   un
   433   233   239   un
   434   234   240   un
   435   235   241   un
   436   236   242   un
   437   237   238   un
   438   237   243   un
   439   238   244   un
   440   239   240   un
   441   239   245   un
   442   240   246   un
   443   241   242   un
   444   241   247   un
   445   242   248   un
   446   249   251   un
   447   250   252   un
   448   251   252   un
   449   251   253   un
   450   252   254   un
   451   255   260   un
   452   256   261   un
   453   256   262   un
   454   258   266   un
   455   258   268   un
   456   258  1045   un
   457   258  1191   un
   458   258  1201   un
   459   259   261   un
   460   259   267   un
   461   259   662   un
   462   259   676   un
   463   259  1194   un
   464   259  1265   un
   465   259  1268   un
   466   260   578   un
   467   260   591   un
   468   260   601   un
   469   261   262   un
   470   261   267   un
   471   261   592   un
   472   261   659   un
   473   261   662   un
   474   261   666   un
   475   261   668   un
   476   261   676   un
   477   262   596   un
   478   262   612   un
   479   262   659   un
   480   262   662   un
   481   263  1243   un
   482   264  1215   un
   483   265  1212   un
   484   269   271   un
   485   269   275   un
   486   269   288   un
   487   269   308   un
   488   269   367   un
   489   270   276   un
   490   270   290   un
   491   270   294   un
   492   270   366   un
   493   270   368   un
   494   270   374   un
   495   270   376   un
   496   270   379   un
   497   270   382   un
   498   270   384   un
   499   270   390   un
   500   270   391   un
   501   271   273   un
   502   271   275   un
   503   271   278   un
   504   271   292   un
   505   271   296   un
   506   271   367   un
   507   271   370   un
   508   272   280   un
   509   272   298   un
   510   272   371   un
   511   272   372   un
   512   272   378   un
   513   272   381   un
   514   272   386   un
   515   272   388   un
   516   273   275   un
   517   273   282   un
   518   273   300   un
   519   273   370   un
   520   274   284   un
   521   274   302   un
   522   274   369   un
   523   274   375   un
   524   274   377   un
   525   274   380   un
   526   274   387   un
   527   274   389   un
   528   275   286   un
   529   275   304   un
   530   275   310   un
   531   275   367   un
   532   275   370   un
   533   276   329   un
   534   277   330   un
   535   277   377   un
   536   278   331   un
   537   279   332   un
   538   279   378   un
   539   280   333   un
   540   281   334   un
   541   281   379   un
   542   282   335   un
   543   283   336   un
   544   283   380   un
   545   284   337   un
   546   285   338   un
   547   285   381   un
   548   286   339   un
   549   287   340   un
   550   287   382   un
   551   288   311   un
   552   289   312   un
   553   290   313   un
   554   291   314   un
   555   292   315   un
   556   293   316   un
   557   294   340   un
   558   295   337   un
   559   295   377   un
   560   296   339   un
   561   297   338   un
   562   297   378   un
   563   298   332   un
   564   299   329   un
   565   299   379   un
   566   300   331   un
   567   301   330   un
   568   301   380   un
   569   302   336   un
   570   303   333   un
   571   303   381   un
   572   304   335   un
   573   305   334   un
   574   305   382   un
   575   306   316   un
   576   306   373   un
   577   307   313   un
   578   307   374   un
   579   308   315   un
   580   309   314   un
   581   310   311   un
   582   311   317   un
   583   312   318   un
   584   313   319   un
   585   314   320   un
   586   315   321   un
   587   316   322   un
   588   317   318   un
   589   317   323   un
   590   318   324   un
   591   319   320   un
   592   319   325   un
   593   320   326   un
   594   321   322   un
   595   321   327   un
   596   322   328   un
   597   329   341   un
   598   330   342   un
   599   331   343   un
   600   332   344   un
   601   333   345   un
   602   334   346   un
   603   335   347   un
   604   336   348   un
   605   337   349   un
   606   338   350   un
   607   339   351   un
   608   340   352   un
   609   341   342   un
   610   341   353   un
   611   342   354   un
   612   343   344   un
   613   343   355   un
   614   344   356   un
   615   345   346   un
   616   345   357   un
   617   346   358   un
   618   347   348   un
   619   347   359   un
   620   348   360   un
   621   349   350   un
   622   349   361   un
   623   350   362   un
   624   351   352   un
   625   351   363   un
   626   352   364   un
   627   365   373   un
   628   366   374   un
   629   366   382   un
   630   368   379   un
   631   368   382   un
   632   369   377   un
   633   369   380   un
   634   371   378   un
   635   371   381   un
   636   372   381   un
   637   372   388   un
   638   372   723   un
   639   372  1297   un
   640   372  1327   un
   641   372  1442   un
   642   372  1458   un
   643   373   995   un
   644   373  1298   un
   645   373  1310   un
   646   374   376   un
   647   374   382   un
   648   374   391   un
   649   374   549   un
   650   374   581   un
   651   374  1299   un
   652   374  1425   un
   653   374  1443   un
   654   374  1445   un
   655   375   377   un
   656   375   389   un
   657   375   554   un
   658   375   684   un
   659   375   694   un
   660   375   727   un
   661   375   731   un
   662   376   379   un
   663   376   390   un
   664   376   391   un
   665   376   419   un
   666   376   449   un
   667   376   549   un
   668   376   565   un
   669   376   567   un
   670   376   580   un
   671   376   581   un
   672   377   380   un
   673   377   389   un
   674   377   540   un
   675   377   554   un
   676   377   686   un
   677   377   729   un
   678   377   731   un
   679   378   381   un
   680   378   688   un
   681   378   720   un
   682   378   723   un
   683   379   382   un
   684   379   390   un
   685   379   425   un
   686   379   549   un
   687   379   571   un
   688   379   573   un
   689   379   580   un
   690   380   427   un
   691   380   540   un
   692   380   554   un
   693   381   388   un
   694   381   720   un
   695   381   723   un
   696   381  1307   un
   697   381  1451   un
   698   381  1458   un
   699   382   549   un
   700   382   573   un
   701   382  1309   un
   702   382  1334   un
   703   382  1425   un
   704   383   496   un
   705   384   458   un
   706   385   455   un
   707   386  1336   un
   708   387   697   un
   709   393   394   un
   710   393   396   un
   711   393   400   un
   712   393   401   un
   713   393   414   un
   714   393   444   un
   715   393   539   un
   716   393   543   un
   717   394   396   un
   718   394   398   un
   719   394   418   un
   720   394   429   un
   721   394   448   un
   722   394   542   un
   723   394   543   un
   724   395   402   un
   725   395   420   un
   726   395   430   un
   727   395   538   un
   728   395   545   un
   729   395   552   un
   730   395   556   un
   731   395   559   un
   732   395   562   un
   733   395   568   un
   734   395   576   un
   735   395   577   un
   736   396   398   un
   737   396   400   un
   738   396   404   un
   739   396   422   un
   740   396   432   un
   741   396   450   un
   742   396   539   un
   743   396   542   un
   744   396   543   un
   745   396   547   un
   746   397   406   un
   747   397   424   un
   748   397   434   un
   749   397   541   un
   750   397   548   un
   751   397   550   un
   752   397   555   un
   753   397   558   un
   754   397   561   un
   755   397   570   un
   756   397   574   un
   757   397   579   un
   758   398   400   un
   759   398   408   un
   760   398   426   un
   761   398   436   un
   762   398   542   un
   763   398   547   un
   764   399   410   un
   765   399   438   un
   766   399   546   un
   767   399   553   un
   768   399   557   un
   769   399   560   un
   770   399   572   un
   771   399   575   un
   772   400   412   un
   773   400   440   un
   774   400   452   un
   775   400   539   un
   776   400   547   un
   777   401   495   un
   778   402   497   un
   779   403   498   un
   780   403   557   un
   781   404   499   un
   782   405   500   un
   783   405   558   un
   784   406   501   un
   785   407   502   un
   786   407   559   un
   787   408   503   un
   788   409   504   un
   789   409   560   un
   790   410   505   un
   791   411   506   un
   792   411   561   un
   793   412   507   un
   794   413   508   un
   795   413   562   un
   796   414   453   un
   797   415   454   un
   798   416   455   un
   799   417   456   un
   800   418   457   un
   801   419   458   un
   802   420   459   un
   803   421   460   un
   804   422   461   un
   805   423   462   un
   806   424   463   un
   807   425   464   un
   808   426   465   un
   809   427   466   un
   810   428   496   un
   811   429   495   un
   812   430   508   un
   813   431   505   un
   814   431   557   un
   815   432   507   un
   816   433   506   un
   817   433   558   un
   818   434   500   un
   819   435   497   un
   820   435   559   un
   821   436   499   un
   822   437   498   un
   823   437   560   un
   824   438   504   un
   825   439   501   un
   826   439   561   un
   827   440   503   un
   828   441   502   un
   829   441   562   un
   830   442   462   un
   831   442   551   un
   832   443   459   un
   833   443   552   un
   834   444   461   un
   835   445   460   un
   836   446   466   un
   837   446   554   un
   838   447   463   un
   839   447   555   un
   840   448   465   un
   841   449   464   un
   842   450   457   un
   843   451   456   un
   844   452   453   un
   845   453   467   un
   846   454   468   un
   847   455   469   un
   848   456   470   un
   849   457   471   un
   850   458   472   un
   851   459   473   un
   852   460   474   un
   853   461   475   un
   854   462   476   un
   855   463   477   un
   856   464   478   un
   857   465   479   un
   858   466   480   un
   859   467   468   un
   860   467   481   un
   861   468   482   un
   862   469   470   un
   863   469   483   un
   864   470   484   un
   865   471   472   un
   866   471   485   un
   867   472   486   un
   868   473   474   un
   869   473   487   un
   870   474   488   un
   871   475   476   un
   872   475   489   un
   873   476   490   un
   874   477   478   un
   875   477   491   un
   876   478   492   un
   877   479   480   un
   878   479   493   un
   879   480   494   un
   880   495   509   un
   881   496   510   un
   882   497   511   un
   883   498   512   un
   884   499   513   un
   885   500   514   un
   886   501   515   un
   887   502   516   un
   888   503   517   un
   889   504   518   un
   890   505   519   un
   891   506   520   un
   892   507   521   un
   893   508   522   un
   894   509   510   un
   895   509   523   un
   896   510   524   un
   897   511   512   un
   898   511   525   un
   899   512   526   un
   900   513   514   un
   901   513   527   un
   902   514   528   un
   903   515   516   un
   904   515   529   un
   905   516   530   un
   906   517   518   un
   907   517   531   un
   908   518   532   un
   909   519   520   un
   910   519   533   un
   911   520   534   un
   912   521   522   un
   913   521   535   un
   914   522   536   un
   915   537   551   un
   916   538   552   un
   917   538   562   un
   918   540   554   un
   919   541   555   un
   920   541   558   un
   921   544   551   un
   922   545   559   un
   923   545   562   un
   924   546   557   un
   925   546   560   un
   926   548   558   un
   927   548   561   un
   928   549   573   un
   929   549   580   un
   930   549   581   un
   931   549  1324   un
   932   549  1425   un
   933   549  1468   un
   934   549  1486   un
   935   549  1510   un
   936   550   555   un
   937   550   561   un
   938   550   574   un
   939   550   579   un
   940   550   809   un
   941   550   823   un
   942   550  1489   un
   943   550  1531   un
   944   550  1725   un
   945   550  1731   un
   946   550  1751   un
   947   551   582   un
   948   551  1181   un
   949   551  1470   un
   950   551  1490   un
   951   551  1512   un
   952   552   556   un
   953   552   562   un
   954   552   577   un
   955   552   660   un
   956   552   675   un
   957   552  1491   un
   958   552  1703   un
   959   552  1726   un
   960   552  1732   un
   961   553   557   un
   962   553   575   un
   963   553   663   un
   964   553   741   un
   965   553   757   un
   966   553   813   un
   967   553   821   un
   968   554   731   un
   969   554   742   un
   970   554   750   un
   971   555   558   un
   972   555   579   un
   973   555   743   un
   974   555   807   un
   975   555   809   un
   976   555   814   un
   977   555   816   un
   978   555   823   un
   979   556   559   un
   980   556   576   un
   981   556   577   un
   982   556   594   un
   983   556   610   un
   984   556   660   un
   985   556   667   un
   986   556   669   un
   987   556   674   un
   988   556   675   un
   989   557   560   un
   990   557   575   un
   991   557   655   un
   992   557   663   un
   993   557   747   un
   994   557   819   un
   995   557   821   un
   996   558   561   un
   997   558   749   un
   998   558   759   un
   999   558   803   un
  1000   558   807   un
  1001   558   809   un
  1002   559   562   un
  1003   559   576   un
  1004   559   598   un
  1005   559   660   un
  1006   559   671   un
  1007   559   672   un
  1008   559   674   un
  1009   560   600   un
  1010   560   655   un
  1011   560   663   un
  1012   561   574   un
  1013   561   803   un
  1014   561   809   un
  1015   561  1507   un
  1016   561  1741   un
  1017   561  1751   un
  1018   562   660   un
  1019   562   672   un
  1020   562  1509   un
  1021   562  1545   un
  1022   562  1703   un
  1023   563   644   un
  1024   564  1627   un
  1025   565  1629   un
  1026   566  1622   un
  1027   567  1623   un
  1028   568   616   un
  1029   569   613   un
  1030   570  1549   un
  1031   571  1546   un
  1032   572   762   un
  1033   583   584   un
  1034   583   585   un
  1035   583   588   un
  1036   583   606   un
  1037   583   658   un
  1038   584   585   un
  1039   584   587   un
  1040   584   593   un
  1041   584   602   un
  1042   584   609   un
  1043   584   657   un
  1044   584   658   un
  1045   585   587   un
  1046   585   589   un
  1047   585   595   un
  1048   585   611   un
  1049   585   657   un
  1050   585   658   un
  1051   586   597   un
  1052   586   603   un
  1053   586   656   un
  1054   586   661   un
  1055   586   664   un
  1056   586   665   un
  1057   586   670   un
  1058   586   673   un
  1059   587   599   un
  1060   587   604   un
  1061   587   657   un
  1062   588   643   un
  1063   589   645   un
  1064   590   646   un
  1065   590   665   un
  1066   591   613   un
  1067   592   614   un
  1068   593   615   un
  1069   594   616   un
  1070   595   617   un
  1071   596   618   un
  1072   597   619   un
  1073   598   620   un
  1074   599   621   un
  1075   600   622   un
  1076   601   644   un
  1077   602   643   un
  1078   603   646   un
  1079   604   645   un
  1080   605   618   un
  1081   605   662   un
  1082   606   617   un
  1083   607   622   un
  1084   607   663   un
  1085   608   619   un
  1086   608   664   un
  1087   609   621   un
  1088   610   620   un
  1089   611   615   un
  1090   612   614   un
  1091   613   623   un
  1092   614   624   un
  1093   615   625   un
  1094   616   626   un
  1095   617   627   un
  1096   618   628   un
  1097   619   629   un
  1098   620   630   un
  1099   621   631   un
  1100   622   632   un
  1101   623   624   un
  1102   623   633   un
  1103   624   634   un
  1104   625   626   un
  1105   625   635   un
  1106   626   636   un
  1107   627   628   un
  1108   627   637   un
  1109   628   638   un
  1110   629   630   un
  1111   629   639   un
  1112   630   640   un
  1113   631   632   un
  1114   631   641   un
  1115   632   642   un
  1116   643   647   un
  1117   644   648   un
  1118   645   649   un
  1119   646   650   un
  1120   647   648   un
  1121   647   651   un
  1122   648   652   un
  1123   649   650   un
  1124   649   653   un
  1125   650   654   un
  1126   655   663   un
  1127   656   664   un
  1128   656   665   un
  1129   659   662   un
  1130   660   672   un
  1131   660   674   un
  1132   660   675   un
  1133   660  1528   un
  1134   660  1703   un
  1135   660  1761   un
  1136   660  1769   un
  1137   660  1783   un
  1138   661   664   un
  1139   661   673   un
  1140   661   867   un
  1141   661   873   un
  1142   661  1772   un
  1143   661  1900   un
  1144   661  1904   un
  1145   662   676   un
  1146   662  1763   un
  1147   662  1785   un
  1148   663   821   un
  1149   663   828   un
  1150   663   834   un
  1151   664   665   un
  1152   664   673   un
  1153   664   829   un
  1154   664   865   un
  1155   664   867   un
  1156   664   868   un
  1157   664   870   un
  1158   664   873   un
  1159   665   833   un
  1160   665   839   un
  1161   665   865   un
  1162   665   867   un
  1163   666  1852   un
  1164   667  1854   un
  1165   668  1847   un
  1166   669  1848   un
  1167   670  1804   un
  1168   671  1801   un
  1169   677   679   un
  1170   677   680   un
  1171   677   683   un
  1172   677   693   un
  1173   677   722   un
  1174   678   685   un
  1175   678   689   un
  1176   678   721   un
  1177   678   724   un
  1178   678   725   un
  1179   678   726   un
  1180   678   728   un
  1181   678   730   un
  1182   679   680   un
  1183   679   687   un
  1184   679   690   un
  1185   679   722   un
  1186   680   681   un
  1187   680   695   un
  1188   680   722   un
  1189   681   714   un
  1190   682   715   un
  1191   682   726   un
  1192   683   696   un
  1193   684   697   un
  1194   685   698   un
  1195   686   699   un
  1196   687   700   un
  1197   688   701   un
  1198   689   715   un
  1199   690   714   un
  1200   691   701   un
  1201   691   723   un
  1202   692   698   un
  1203   692   724   un
  1204   693   700   un
  1205   694   699   un
  1206   695   696   un
  1207   696   702   un
  1208   697   703   un
  1209   698   704   un
  1210   699   705   un
  1211   700   706   un
  1212   701   707   un
  1213   702   703   un
  1214   702   708   un
  1215   703   709   un
  1216   704   705   un
  1217   704   710   un
  1218   705   711   un
  1219   706   707   un
  1220   706   712   un
  1221   707   713   un
  1222   714   716   un
  1223   715   717   un
  1224   716   717   un
  1225   716   718   un
  1226   717   719   un
  1227   720   723   un
  1228   721   724   un
  1229   721   726   un
  1230   723  1458   un
  1231   723  1923   un
  1232   723  1933   un
  1233   724   725   un
  1234   724   726   un
  1235   724   730   un
  1236   724   808   un
  1237   724   822   un
  1238   724  1924   un
  1239   724  1991   un
  1240   724  1996   un
  1241   724  1998   un
  1242   725   730   un
  1243   725   745   un
  1244   725   808   un
  1245   725   815   un
  1246   725   817   un
  1247   725   822   un
  1248   726   808   un
  1249   726  1932   un
  1250   726  1944   un
  1251   726  1991   un
  1252   727   792   un
  1253   728   766   un
  1254   729   763   un
  1255   732   733   un
  1256   732   735   un
  1257   732   736   un
  1258   732   737   un
  1259   732   740   un
  1260   732   756   un
  1261   732   805   un
  1262   732   806   un
  1263   733   735   un
  1264   733   744   un
  1265   733   751   un
  1266   733   806   un
  1267   734   746   un
  1268   734   752   un
  1269   734   804   un
  1270   734   810   un
  1271   734   811   un
  1272   734   812   un
  1273   734   818   un
  1274   734   820   un
  1275   735   736   un
  1276   735   748   un
  1277   735   753   un
  1278   735   758   un
  1279   735   805   un
  1280   735   806   un
  1281   736   738   un
  1282   736   760   un
  1283   736   805   un
  1284   737   791   un
  1285   738   793   un
  1286   739   794   un
  1287   739   812   un
  1288   740   761   un
  1289   741   762   un
  1290   742   763   un
  1291   743   764   un
  1292   744   765   un
  1293   745   766   un
  1294   746   767   un
  1295   747   768   un
  1296   748   769   un
  1297   749   770   un
  1298   750   792   un
  1299   751   791   un
  1300   752   794   un
  1301   753   793   un
  1302   754   770   un
  1303   754   809   un
  1304   755   767   un
  1305   755   810   un
  1306   756   769   un
  1307   757   768   un
  1308   758   765   un
  1309   759   764   un
  1310   760   761   un
  1311   761   771   un
  1312   762   772   un
  1313   763   773   un
  1314   764   774   un
  1315   765   775   un
  1316   766   776   un
  1317   767   777   un
  1318   768   778   un
  1319   769   779   un
  1320   770   780   un
  1321   771   772   un
  1322   771   781   un
  1323   772   782   un
  1324   773   774   un
  1325   773   783   un
  1326   774   784   un
  1327   775   776   un
  1328   775   785   un
  1329   776   786   un
  1330   777   778   un
  1331   777   787   un
  1332   778   788   un
  1333   779   780   un
  1334   779   789   un
  1335   780   790   un
  1336   791   795   un
  1337   792   796   un
  1338   793   797   un
  1339   794   798   un
  1340   795   796   un
  1341   795   799   un
  1342   796   800   un
  1343   797   798   un
  1344   797   801   un
  1345   798   802   un
  1346   803   809   un
  1347   804   810   un
  1348   804   812   un
  1349   807   809   un
  1350   808   822   un
  1351   808  1937   un
  1352   808  1991   un
  1353   808  2010   un
  1354   808  2032   un
  1355   809   823   un
  1356   809  1751   un
  1357   809  2012   un
  1358   809  2018   un
  1359   809  2034   un
  1360   810   811   un
  1361   810   812   un
  1362   810   820   un
  1363   810   866   un
  1364   810   872   un
  1365   810  2019   un
  1366   810  2140   un
  1367   810  2147   un
  1368   810  2151   un
  1369   811   820   un
  1370   811   831   un
  1371   811   866   un
  1372   811   869   un
  1373   811   871   un
  1374   811   872   un
  1375   812   866   un
  1376   812  2031   un
  1377   812  2049   un
  1378   812  2140   un
  1379   813   859   un
  1380   814  2101   un
  1381   815  2103   un
  1382   816  2096   un
  1383   817  2097   un
  1384   818   843   un
  1385   819   840   un
  1386   824   825   un
  1387   824   826   un
  1388   824   827   un
  1389   824   837   un
  1390   824   864   un
  1391   825   826   un
  1392   825   830   un
  1393   825   835   un
  1394   825   864   un
  1395   826   832   un
  1396   826   838   un
  1397   826   864   un
  1398   827   858   un
  1399   828   840   un
  1400   829   841   un
  1401   830   842   un
  1402   831   843   un
  1403   832   844   un
  1404   833   845   un
  1405   834   859   un
  1406   835   858   un
  1407   836   845   un
  1408   836   867   un
  1409   837   844   un
  1410   838   842   un
  1411   839   841   un
  1412   840   846   un
  1413   841   847   un
  1414   842   848   un
  1415   843   849   un
  1416   844   850   un
  1417   845   851   un
  1418   846   847   un
  1419   846   852   un
  1420   847   853   un
  1421   848   849   un
  1422   848   854   un
  1423   849   855   un
  1424   850   851   un
  1425   850   856   un
  1426   851   857   un
  1427   858   860   un
  1428   859   861   un
  1429   860   861   un
  1430   860   862   un
  1431   861   863   un
  1432   865   867   un
  1433   866   872   un
  1434   866  2040   un
  1435   866  2140   un
  1436   866  2165   un
  1437   866  2177   un
  1438   867   873   un
  1439   867  2167   un
  1440   867  2179   un
  1441   868  2214   un
  1442   869  2216   un
  1443   870  2209   un
  1444   871  2210   un
  1445   874   878   un
  1446   874   880   un
  1447   874   893   un
  1448   874   913   un
  1449   874   971   un
  1450   875   881   un
  1451   875   899   un
  1452   875   972   un
  1453   875   979   un
  1454   875   982   un
  1455   875   985   un
  1456   875   987   un
  1457   875   993   un
  1458   876   878   un
  1459   876   880   un
  1460   876   883   un
  1461   876   901   un
  1462   876   974   un
  1463   877   885   un
  1464   877   903   un
  1465   877   975   un
  1466   877   977   un
  1467   877   981   un
  1468   877   984   un
  1469   877   988   un
  1470   877   991   un
  1471   878   880   un
  1472   878   887   un
  1473   878   905   un
  1474   878   915   un
  1475   878   971   un
  1476   878   974   un
  1477   879   889   un
  1478   879   895   un
  1479   879   907   un
  1480   879   970   un
  1481   879   973   un
  1482   879   976   un
  1483   879   978   un
  1484   879   980   un
  1485   879   983   un
  1486   879   989   un
  1487   879   992   un
  1488   879   994   un
  1489   880   891   un
  1490   880   897   un
  1491   880   909   un
  1492   880   971   un
  1493   880   974   un
  1494   881   934   un
  1495   882   935   un
  1496   882   980   un
  1497   883   936   un
  1498   884   937   un
  1499   884   981   un
  1500   885   938   un
  1501   886   939   un
  1502   886   982   un
  1503   887   940   un
  1504   888   941   un
  1505   888   983   un
  1506   889   942   un
  1507   890   943   un
  1508   890   984   un
  1509   891   944   un
  1510   892   945   un
  1511   892   985   un
  1512   893   916   un
  1513   894   917   un
  1514   895   918   un
  1515   896   919   un
  1516   897   920   un
  1517   898   921   un
  1518   899   945   un
  1519   900   942   un
  1520   900   980   un
  1521   901   944   un
  1522   902   943   un
  1523   902   981   un
  1524   903   937   un
  1525   904   934   un
  1526   904   982   un
  1527   905   936   un
  1528   906   935   un
  1529   906   983   un
  1530   907   941   un
  1531   908   938   un
  1532   908   984   un
  1533   909   940   un
  1534   910   939   un
  1535   910   985   un
  1536   911   921   un
  1537   912   918   un
  1538   912   976   un
  1539   913   920   un
  1540   914   919   un
  1541   915   916   un
  1542   916   922   un
  1543   917   923   un
  1544   918   924   un
  1545   919   925   un
  1546   920   926   un
  1547   921   927   un
  1548   922   923   un
  1549   922   928   un
  1550   923   929   un
  1551   924   925   un
  1552   924   930   un
  1553   925   931   un
  1554   926   927   un
  1555   926   932   un
  1556   927   933   un
  1557   934   946   un
  1558   935   947   un
  1559   936   948   un
  1560   937   949   un
  1561   938   950   un
  1562   939   951   un
  1563   940   952   un
  1564   941   953   un
  1565   942   954   un
  1566   943   955   un
  1567   944   956   un
  1568   945   957   un
  1569   946   947   un
  1570   946   958   un
  1571   947   959   un
  1572   948   949   un
  1573   948   960   un
  1574   949   961   un
  1575   950   951   un
  1576   950   962   un
  1577   951   963   un
  1578   952   953   un
  1579   952   964   un
  1580   953   965   un
  1581   954   955   un
  1582   954   966   un
  1583   955   967   un
  1584   956   957   un
  1585   956   968   un
  1586   957   969   un
  1587   970   976   un
  1588   970   983   un
  1589   972   982   un
  1590   972   985   un
  1591   973   980   un
  1592   973   983   un
  1593   975   981   un
  1594   975   984   un
  1595   976   978   un
  1596   976   983   un
  1597   976   994   un
  1598   976  1018   un
  1599   976  1146   un
  1600   976  1155   un
  1601   976  1164   un
  1602   976  1167   un
  1603   976  1182   un
  1604   977   984   un
  1605   977   991   un
  1606   977  1432   un
  1607   977  2259   un
  1608   977  2269   un
  1609   977  2300   un
  1610   977  2304   un
  1611   978   980   un
  1612   978   992   un
  1613   978   994   un
  1614   978  1155   un
  1615   978  1182   un
  1616   978  1301   un
  1617   978  1331   un
  1618   978  1444   un
  1619   978  1446   un
  1620   978  1456   un
  1621   979   982   un
  1622   979   993   un
  1623   979  1022   un
  1624   979  1052   un
  1625   979  1151   un
  1626   979  1166   un
  1627   979  1179   un
  1628   980   983   un
  1629   980   992   un
  1630   980  1142   un
  1631   980  1155   un
  1632   980  1303   un
  1633   980  1448   un
  1634   980  1456   un
  1635   981   984   un
  1636   981  1305   un
  1637   981  1421   un
  1638   981  1432   un
  1639   982   985   un
  1640   982   993   un
  1641   982  1024   un
  1642   982  1151   un
  1643   982  1171   un
  1644   982  1174   un
  1645   982  1179   un
  1646   983  1026   un
  1647   983  1055   un
  1648   983  1142   un
  1649   983  1146   un
  1650   983  1155   un
  1651   984   991   un
  1652   984  1421   un
  1653   984  1432   un
  1654   984  2261   un
  1655   984  2302   un
  1656   984  2304   un
  1657   985  1151   un
  1658   985  1174   un
  1659   985  2263   un
  1660   986  1378   un
  1661   987  1061   un
  1662   988  2272   un
  1663   989  1340   un
  1664   990  1337   un
  1665   996   997   un
  1666   996  1001   un
  1667   996  1003   un
  1668   996  1019   un
  1669   996  1032   un
  1670   996  1047   un
  1671   996  1141   un
  1672   996  1145   un
  1673   997   999   un
  1674   997  1001   un
  1675   997  1004   un
  1676   997  1021   un
  1677   997  1051   un
  1678   997  1144   un
  1679   997  1145   un
  1680   998  1005   un
  1681   998  1033   un
  1682   998  1147   un
  1683   998  1157   un
  1684   998  1160   un
  1685   998  1163   un
  1686   998  1169   un
  1687   998  1177   un
  1688   999  1001   un
  1689   999  1003   un
  1690   999  1007   un
  1691   999  1035   un
  1692   999  1053   un
  1693   999  1144   un
  1694   999  1149   un
  1695  1000  1009   un
  1696  1000  1023   un
  1697  1000  1037   un
  1698  1000  1143   un
  1699  1000  1150   un
  1700  1000  1153   un
  1701  1000  1156   un
  1702  1000  1159   un
  1703  1000  1162   un
  1704  1000  1170   un
  1705  1000  1175   un
  1706  1000  1178   un
  1707  1001  1003   un
  1708  1001  1011   un
  1709  1001  1025   un
  1710  1001  1039   un
  1711  1001  1054   un
  1712  1001  1141   un
  1713  1001  1144   un
  1714  1001  1145   un
  1715  1001  1149   un
  1716  1002  1013   un
  1717  1002  1027   un
  1718  1002  1041   un
  1719  1002  1140   un
  1720  1002  1148   un
  1721  1002  1152   un
  1722  1002  1154   un
  1723  1002  1158   un
  1724  1002  1161   un
  1725  1002  1172   un
  1726  1002  1176   un
  1727  1002  1180   un
  1728  1003  1015   un
  1729  1003  1029   un
  1730  1003  1043   un
  1731  1003  1141   un
  1732  1003  1149   un
  1733  1004  1098   un
  1734  1005  1100   un
  1735  1006  1101   un
  1736  1006  1158   un
  1737  1007  1102   un
  1738  1008  1103   un
  1739  1008  1159   un
  1740  1009  1104   un
  1741  1010  1105   un
  1742  1010  1160   un
  1743  1011  1106   un
  1744  1012  1107   un
  1745  1012  1161   un
  1746  1013  1108   un
  1747  1014  1109   un
  1748  1014  1162   un
  1749  1015  1110   un
  1750  1016  1111   un
  1751  1016  1163   un
  1752  1017  1056   un
  1753  1018  1057   un
  1754  1019  1058   un
  1755  1020  1059   un
  1756  1021  1060   un
  1757  1022  1061   un
  1758  1023  1062   un
  1759  1024  1063   un
  1760  1025  1064   un
  1761  1026  1065   un
  1762  1027  1066   un
  1763  1028  1067   un
  1764  1029  1068   un
  1765  1030  1069   un
  1766  1031  1099   un
  1767  1032  1098   un
  1768  1033  1111   un
  1769  1034  1108   un
  1770  1034  1158   un
  1771  1035  1110   un
  1772  1036  1109   un
  1773  1036  1159   un
  1774  1037  1103   un
  1775  1038  1100   un
  1776  1038  1160   un
  1777  1039  1102   un
  1778  1040  1101   un
  1779  1040  1161   un
  1780  1041  1107   un
  1781  1042  1104   un
  1782  1042  1162   un
  1783  1043  1106   un
  1784  1044  1105   un
  1785  1044  1163   un
  1786  1045  1069   un
  1787  1046  1066   un
  1788  1046  1152   un
  1789  1047  1068   un
  1790  1048  1067   un
  1791  1049  1065   un
  1792  1049  1155   un
  1793  1050  1062   un
  1794  1050  1156   un
  1795  1051  1064   un
  1796  1052  1063   un
  1797  1053  1060   un
  1798  1054  1058   un
  1799  1055  1057   un
  1800  1056  1070   un
  1801  1057  1071   un
  1802  1058  1072   un
  1803  1059  1073   un
  1804  1060  1074   un
  1805  1061  1075   un
  1806  1062  1076   un
  1807  1063  1077   un
  1808  1064  1078   un
  1809  1065  1079   un
  1810  1066  1080   un
  1811  1067  1081   un
  1812  1068  1082   un
  1813  1069  1083   un
  1814  1070  1071   un
  1815  1070  1084   un
  1816  1071  1085   un
  1817  1072  1073   un
  1818  1072  1086   un
  1819  1073  1087   un
  1820  1074  1075   un
  1821  1074  1088   un
  1822  1075  1089   un
  1823  1076  1077   un
  1824  1076  1090   un
  1825  1077  1091   un
  1826  1078  1079   un
  1827  1078  1092   un
  1828  1079  1093   un
  1829  1080  1081   un
  1830  1080  1094   un
  1831  1081  1095   un
  1832  1082  1083   un
  1833  1082  1096   un
  1834  1083  1097   un
  1835  1098  1112   un
  1836  1099  1113   un
  1837  1100  1114   un
  1838  1101  1115   un
  1839  1102  1116   un
  1840  1103  1117   un
  1841  1104  1118   un
  1842  1105  1119   un
  1843  1106  1120   un
  1844  1107  1121   un
  1845  1108  1122   un
  1846  1109  1123   un
  1847  1110  1124   un
  1848  1111  1125   un
  1849  1112  1113   un
  1850  1112  1126   un
  1851  1113  1127   un
  1852  1114  1115   un
  1853  1114  1128   un
  1854  1115  1129   un
  1855  1116  1117   un
  1856  1116  1130   un
  1857  1117  1131   un
  1858  1118  1119   un
  1859  1118  1132   un
  1860  1119  1133   un
  1861  1120  1121   un
  1862  1120  1134   un
  1863  1121  1135   un
  1864  1122  1123   un
  1865  1122  1136   un
  1866  1123  1137   un
  1867  1124  1125   un
  1868  1124  1138   un
  1869  1125  1139   un
  1870  1140  1152   un
  1871  1140  1161   un
  1872  1142  1155   un
  1873  1143  1156   un
  1874  1143  1159   un
  1875  1146  1155   un
  1876  1147  1160   un
  1877  1147  1163   un
  1878  1148  1158   un
  1879  1148  1161   un
  1880  1150  1159   un
  1881  1150  1162   un
  1882  1151  1174   un
  1883  1151  1179   un
  1884  1151  2266   un
  1885  1151  2313   un
  1886  1151  2323   un
  1887  1152  1154   un
  1888  1152  1161   un
  1889  1152  1180   un
  1890  1152  1192   un
  1891  1152  1258   un
  1892  1152  1261   un
  1893  1152  1264   un
  1894  1152  1267   un
  1895  1152  1274   un
  1896  1153  1156   un
  1897  1153  1162   un
  1898  1153  1175   un
  1899  1153  1178   un
  1900  1153  1712   un
  1901  1153  1754   un
  1902  1153  2316   un
  1903  1153  2330   un
  1904  1153  2386   un
  1905  1153  2388   un
  1906  1153  2392   un
  1907  1154  1158   un
  1908  1154  1176   un
  1909  1154  1180   un
  1910  1154  1261   un
  1911  1154  1274   un
  1912  1154  1493   un
  1913  1154  1535   un
  1914  1154  1727   un
  1915  1154  1733   un
  1916  1154  1747   un
  1917  1155  1182   un
  1918  1155  1456   un
  1919  1155  1472   un
  1920  1155  1494   un
  1921  1155  1514   un
  1922  1156  1159   un
  1923  1156  1178   un
  1924  1156  1495   un
  1925  1156  1699   un
  1926  1156  1712   un
  1927  1156  1728   un
  1928  1156  1734   un
  1929  1156  1754   un
  1930  1157  1160   un
  1931  1157  1177   un
  1932  1157  1196   un
  1933  1157  1208   un
  1934  1157  1259   un
  1935  1157  1266   un
  1936  1157  1273   un
  1937  1158  1161   un
  1938  1158  1176   un
  1939  1158  1254   un
  1940  1158  1261   un
  1941  1158  1499   un
  1942  1158  1737   un
  1943  1158  1747   un
  1944  1159  1162   un
  1945  1159  1501   un
  1946  1159  1541   un
  1947  1159  1692   un
  1948  1159  1699   un
  1949  1159  1712   un
  1950  1160  1163   un
  1951  1160  1177   un
  1952  1160  1198   un
  1953  1160  1259   un
  1954  1160  1270   un
  1955  1160  1271   un
  1956  1160  1273   un
  1957  1161  1200   un
  1958  1161  1211   un
  1959  1161  1254   un
  1960  1161  1258   un
  1961  1161  1261   un
  1962  1162  1175   un
  1963  1162  1692   un
  1964  1162  1712   un
  1965  1162  2320   un
  1966  1162  2390   un
  1967  1162  2392   un
  1968  1163  1259   un
  1969  1163  1271   un
  1970  1163  2322   un
  1971  1164  1619   un
  1972  1165  1621   un
  1973  1166  2366   un
  1974  1167  1626   un
  1975  1168  1627   un
  1976  1169  1217   un
  1977  1170  2338   un
  1978  1171  2335   un
  1979  1172  1553   un
  1980  1173  1550   un
  1981  1183  1184   un
  1982  1183  1187   un
  1983  1183  1193   un
  1984  1183  1202   un
  1985  1183  1257   un
  1986  1184  1185   un
  1987  1184  1187   un
  1988  1184  1188   un
  1989  1184  1195   un
  1990  1184  1207   un
  1991  1184  1256   un
  1992  1184  1257   un
  1993  1185  1187   un
  1994  1185  1189   un
  1995  1185  1209   un
  1996  1185  1256   un
  1997  1186  1197   un
  1998  1186  1203   un
  1999  1186  1255   un
  2000  1186  1260   un
  2001  1186  1262   un
  2002  1186  1263   un
  2003  1186  1269   un
  2004  1186  1272   un
  2005  1187  1199   un
  2006  1187  1204   un
  2007  1187  1210   un
  2008  1187  1256   un
  2009  1187  1257   un
  2010  1188  1242   un
  2011  1189  1244   un
  2012  1190  1245   un
  2013  1190  1263   un
  2014  1191  1212   un
  2015  1192  1213   un
  2016  1193  1214   un
  2017  1194  1215   un
  2018  1195  1216   un
  2019  1196  1217   un
  2020  1197  1218   un
  2021  1198  1219   un
  2022  1199  1220   un
  2023  1200  1221   un
  2024  1201  1243   un
  2025  1202  1242   un
  2026  1203  1245   un
  2027  1204  1244   un
  2028  1205  1221   un
  2029  1205  1261   un
  2030  1206  1218   un
  2031  1206  1262   un
  2032  1207  1220   un
  2033  1208  1219   un
  2034  1209  1216   un
  2035  1210  1214   un
  2036  1211  1213   un
  2037  1212  1222   un
  2038  1213  1223   un
  2039  1214  1224   un
  2040  1215  1225   un
  2041  1216  1226   un
  2042  1217  1227   un
  2043  1218  1228   un
  2044  1219  1229   un
  2045  1220  1230   un
  2046  1221  1231   un
  2047  1222  1223   un
  2048  1222  1232   un
  2049  1223  1233   un
  2050  1224  1225   un
  2051  1224  1234   un
  2052  1225  1235   un
  2053  1226  1227   un
  2054  1226  1236   un
  2055  1227  1237   un
  2056  1228  1229   un
  2057  1228  1238   un
  2058  1229  1239   un
  2059  1230  1231   un
  2060  1230  1240   un
  2061  1231  1241   un
  2062  1242  1246   un
  2063  1243  1247   un
  2064  1244  1248   un
  2065  1245  1249   un
  2066  1246  1247   un
  2067  1246  1250   un
  2068  1247  1251   un
  2069  1248  1249   un
  2070  1248  1252   un
  2071  1249  1253   un
  2072  1254  1261   un
  2073  1255  1262   un
  2074  1255  1263   un
  2075  1258  1261   un
  2076  1259  1271   un
  2077  1259  1273   un
  2078  1259  2327   un
  2079  1259  2398   un
  2080  1259  2404   un
  2081  1260  1262   un
  2082  1260  1272   un
  2083  1260  1895   un
  2084  1260  1914   un
  2085  1260  2401   un
  2086  1260  2438   un
  2087  1260  2440   un
  2088  1261  1274   un
  2089  1261  1747   un
  2090  1261  1765   un
  2091  1261  1773   un
  2092  1261  1787   un
  2093  1262  1263   un
  2094  1262  1272   un
  2095  1262  1774   un
  2096  1262  1889   un
  2097  1262  1895   un
  2098  1262  1901   un
  2099  1262  1905   un
  2100  1262  1914   un
  2101  1263  1778   un
  2102  1263  1798   un
  2103  1263  1889   un
  2104  1263  1895   un
  2105  1264  1844   un
  2106  1265  1846   un
  2107  1266  2429   un
  2108  1267  1851   un
  2109  1268  1852   un
  2110  1269  2413   un
  2111  1270  2410   un
  2112  1275  1276   un
  2113  1275  1280   un
  2114  1275  1282   un
  2115  1275  1283   un
  2116  1275  1296   un
  2117  1275  1326   un
  2118  1275  1420   un
  2119  1275  1424   un
  2120  1276  1278   un
  2121  1276  1282   un
  2122  1276  1300   un
  2123  1276  1311   un
  2124  1276  1330   un
  2125  1276  1423   un
  2126  1276  1424   un
  2127  1277  1284   un
  2128  1277  1302   un
  2129  1277  1312   un
  2130  1277  1422   un
  2131  1277  1426   un
  2132  1277  1433   un
  2133  1277  1435   un
  2134  1277  1438   un
  2135  1277  1441   un
  2136  1277  1447   un
  2137  1277  1454   un
  2138  1277  1455   un
  2139  1278  1280   un
  2140  1278  1282   un
  2141  1278  1286   un
  2142  1278  1304   un
  2143  1278  1314   un
  2144  1278  1423   un
  2145  1278  1428   un
  2146  1279  1288   un
  2147  1279  1316   un
  2148  1279  1429   un
  2149  1279  1431   un
  2150  1279  1437   un
  2151  1279  1440   un
  2152  1279  1449   un
  2153  1279  1452   un
  2154  1280  1282   un
  2155  1280  1290   un
  2156  1280  1318   un
  2157  1280  1332   un
  2158  1280  1420   un
  2159  1280  1428   un
  2160  1281  1292   un
  2161  1281  1306   un
  2162  1281  1320   un
  2163  1281  1419   un
  2164  1281  1427   un
  2165  1281  1430   un
  2166  1281  1434   un
  2167  1281  1436   un
  2168  1281  1439   un
  2169  1281  1450   un
  2170  1281  1453   un
  2171  1281  1457   un
  2172  1282  1294   un
  2173  1282  1308   un
  2174  1282  1322   un
  2175  1282  1333   un
  2176  1282  1420   un
  2177  1282  1423   un
  2178  1282  1424   un
  2179  1282  1428   un
  2180  1283  1377   un
  2181  1284  1379   un
  2182  1285  1380   un
  2183  1285  1436   un
  2184  1286  1381   un
  2185  1287  1382   un
  2186  1287  1437   un
  2187  1288  1383   un
  2188  1289  1384   un
  2189  1289  1438   un
  2190  1290  1385   un
  2191  1291  1386   un
  2192  1291  1439   un
  2193  1292  1387   un
  2194  1293  1388   un
  2195  1293  1440   un
  2196  1294  1389   un
  2197  1295  1390   un
  2198  1295  1441   un
  2199  1296  1335   un
  2200  1297  1336   un
  2201  1298  1337   un
  2202  1299  1338   un
  2203  1300  1339   un
  2204  1301  1340   un
  2205  1302  1341   un
  2206  1303  1342   un
  2207  1304  1343   un
  2208  1305  1344   un
  2209  1306  1345   un
  2210  1307  1346   un
  2211  1308  1347   un
  2212  1309  1348   un
  2213  1310  1378   un
  2214  1311  1377   un
  2215  1312  1390   un
  2216  1313  1387   un
  2217  1313  1436   un
  2218  1314  1389   un
  2219  1315  1388   un
  2220  1315  1437   un
  2221  1316  1382   un
  2222  1317  1379   un
  2223  1317  1438   un
  2224  1318  1381   un
  2225  1319  1380   un
  2226  1319  1439   un
  2227  1320  1386   un
  2228  1321  1383   un
  2229  1321  1440   un
  2230  1322  1385   un
  2231  1323  1384   un
  2232  1323  1441   un
  2233  1324  1348   un
  2234  1325  1345   un
  2235  1325  1430   un
  2236  1326  1347   un
  2237  1327  1346   un
  2238  1328  1344   un
  2239  1328  1432   un
  2240  1329  1341   un
  2241  1329  1433   un
  2242  1330  1343   un
  2243  1331  1342   un
  2244  1332  1335   un
  2245  1333  1339   un
  2246  1334  1338   un
  2247  1335  1349   un
  2248  1336  1350   un
  2249  1337  1351   un
  2250  1338  1352   un
  2251  1339  1353   un
  2252  1340  1354   un
  2253  1341  1355   un
  2254  1342  1356   un
  2255  1343  1357   un
  2256  1344  1358   un
  2257  1345  1359   un
  2258  1346  1360   un
  2259  1347  1361   un
  2260  1348  1362   un
  2261  1349  1350   un
  2262  1349  1363   un
  2263  1350  1364   un
  2264  1351  1352   un
  2265  1351  1365   un
  2266  1352  1366   un
  2267  1353  1354   un
  2268  1353  1367   un
  2269  1354  1368   un
  2270  1355  1356   un
  2271  1355  1369   un
  2272  1356  1370   un
  2273  1357  1358   un
  2274  1357  1371   un
  2275  1358  1372   un
  2276  1359  1360   un
  2277  1359  1373   un
  2278  1360  1374   un
  2279  1361  1362   un
  2280  1361  1375   un
  2281  1362  1376   un
  2282  1377  1391   un
  2283  1378  1392   un
  2284  1379  1393   un
  2285  1380  1394   un
  2286  1381  1395   un
  2287  1382  1396   un
  2288  1383  1397   un
  2289  1384  1398   un
  2290  1385  1399   un
  2291  1386  1400   un
  2292  1387  1401   un
  2293  1388  1402   un
  2294  1389  1403   un
  2295  1390  1404   un
  2296  1391  1392   un
  2297  1391  1405   un
  2298  1392  1406   un
  2299  1393  1394   un
  2300  1393  1407   un
  2301  1394  1408   un
  2302  1395  1396   un
  2303  1395  1409   un
  2304  1396  1410   un
  2305  1397  1398   un
  2306  1397  1411   un
  2307  1398  1412   un
  2308  1399  1400   un
  2309  1399  1413   un
  2310  1400  1414   un
  2311  1401  1402   un
  2312  1401  1415   un
  2313  1402  1416   un
  2314  1403  1404   un
  2315  1403  1417   un
  2316  1404  1418   un
  2317  1419  1430   un
  2318  1419  1439   un
  2319  1421  1432   un
  2320  1422  1433   un
  2321  1422  1441   un
  2322  1426  1438   un
  2323  1426  1441   un
  2324  1427  1436   un
  2325  1427  1439   un
  2326  1429  1437   un
  2327  1429  1440   un
  2328  1430  1434   un
  2329  1430  1439   un
  2330  1430  1457   un
  2331  1430  1487   un
  2332  1430  1701   un
  2333  1430  1715   un
  2334  1430  1724   un
  2335  1430  1730   un
  2336  1430  1753   un
  2337  1431  1440   un
  2338  1431  1452   un
  2339  1431  1992   un
  2340  1431  2451   un
  2341  1431  2467   un
  2342  1431  2520   un
  2343  1431  2528   un
  2344  1432  2304   un
  2345  1432  2452   un
  2346  1432  2460   un
  2347  1433  1435   un
  2348  1433  1441   un
  2349  1433  1455   un
  2350  1433  1709   un
  2351  1433  1752   un
  2352  1433  2453   un
  2353  1433  2516   un
  2354  1433  2521   un
  2355  1433  2523   un
  2356  1434  1436   un
  2357  1434  1453   un
  2358  1434  1457   un
  2359  1434  1715   un
  2360  1434  1753   un
  2361  1434  1926   un
  2362  1434  1942   un
  2363  1434  1997   un
  2364  1434  1999   un
  2365  1434  2003   un
  2366  1435  1438   un
  2367  1435  1454   un
  2368  1435  1455   un
  2369  1435  1497   un
  2370  1435  1539   un
  2371  1435  1709   un
  2372  1435  1729   un
  2373  1435  1735   un
  2374  1435  1749   un
  2375  1435  1752   un
  2376  1436  1439   un
  2377  1436  1453   un
  2378  1436  1695   un
  2379  1436  1715   un
  2380  1436  1928   un
  2381  1436  2001   un
  2382  1436  2003   un
  2383  1437  1440   un
  2384  1437  1930   un
  2385  1437  1987   un
  2386  1437  1992   un
  2387  1438  1441   un
  2388  1438  1454   un
  2389  1438  1503   un
  2390  1438  1709   un
  2391  1438  1739   un
  2392  1438  1742   un
  2393  1438  1749   un
  2394  1439  1505   un
  2395  1439  1543   un
  2396  1439  1695   un
  2397  1439  1701   un
  2398  1439  1715   un
  2399  1440  1452   un
  2400  1440  1987   un
  2401  1440  1992   un
  2402  1440  2457   un
  2403  1440  2526   un
  2404  1440  2528   un
  2405  1441  1709   un
  2406  1441  1742   un
  2407  1441  2459   un
  2408  1441  2470   un
  2409  1441  2516   un
  2410  1442  1976   un
  2411  1443  1623   un
  2412  1444  1625   un
  2413  1445  1618   un
  2414  1446  1619   un
  2415  1447  1557   un
  2416  1448  1554   un
  2417  1449  2472   un
  2418  1450  1948   un
  2419  1451  1945   un
  2420  1459  1460   un
  2421  1459  1461   un
  2422  1459  1465   un
  2423  1459  1467   un
  2424  1459  1469   un
  2425  1459  1488   un
  2426  1459  1511   un
  2427  1459  1530   un
  2428  1459  1691   un
  2429  1459  1700   un
  2430  1459  1702   un
  2431  1459  1704   un
  2432  1460  1461   un
  2433  1460  1463   un
  2434  1460  1467   un
  2435  1460  1471   un
  2436  1460  1492   un
  2437  1460  1513   un
  2438  1460  1534   un
  2439  1460  1694   un
  2440  1460  1698   un
  2441  1460  1702   un
  2442  1460  1704   un
  2443  1461  1463   un
  2444  1461  1465   un
  2445  1461  1473   un
  2446  1461  1496   un
  2447  1461  1515   un
  2448  1461  1538   un
  2449  1461  1697   un
  2450  1461  1698   un
  2451  1461  1700   un
  2452  1461  1704   un
  2453  1462  1474   un
  2454  1462  1498   un
  2455  1462  1516   un
  2456  1462  1693   un
  2457  1462  1705   un
  2458  1462  1713   un
  2459  1462  1717   un
  2460  1462  1720   un
  2461  1462  1723   un
  2462  1462  1736   un
  2463  1462  1745   un
  2464  1462  1746   un
  2465  1463  1465   un
  2466  1463  1467   un
  2467  1463  1476   un
  2468  1463  1500   un
  2469  1463  1518   un
  2470  1463  1540   un
  2471  1463  1694   un
  2472  1463  1697   un
  2473  1463  1698   un
  2474  1463  1707   un
  2475  1464  1478   un
  2476  1464  1502   un
  2477  1464  1520   un
  2478  1464  1696   un
  2479  1464  1708   un
  2480  1464  1711   un
  2481  1464  1716   un
  2482  1464  1719   un
  2483  1464  1722   un
  2484  1464  1738   un
  2485  1464  1743   un
  2486  1464  1748   un
  2487  1465  1467   un
  2488  1465  1480   un
  2489  1465  1504   un
  2490  1465  1522   un
  2491  1465  1542   un
  2492  1465  1691   un
  2493  1465  1697   un
  2494  1465  1700   un
  2495  1465  1707   un
  2496  1466  1482   un
  2497  1466  1506   un
  2498  1466  1524   un
  2499  1466  1690   un
  2500  1466  1706   un
  2501  1466  1710   un
  2502  1466  1714   un
  2503  1466  1718   un
  2504  1466  1721   un
  2505  1466  1740   un
  2506  1466  1744   un
  2507  1466  1750   un
  2508  1467  1484   un
  2509  1467  1508   un
  2510  1467  1526   un
  2511  1467  1544   un
  2512  1467  1691   un
  2513  1467  1694   un
  2514  1467  1702   un
  2515  1467  1707   un
  2516  1468  1618   un
  2517  1469  1620   un
  2518  1470  1622   un
  2519  1471  1624   un
  2520  1472  1626   un
  2521  1473  1628   un
  2522  1474  1630   un
  2523  1475  1631   un
  2524  1475  1718   un
  2525  1476  1632   un
  2526  1477  1633   un
  2527  1477  1719   un
  2528  1478  1634   un
  2529  1479  1635   un
  2530  1479  1720   un
  2531  1480  1636   un
  2532  1481  1637   un
  2533  1481  1721   un
  2534  1482  1638   un
  2535  1483  1639   un
  2536  1483  1722   un
  2537  1484  1640   un
  2538  1485  1641   un
  2539  1485  1723   un
  2540  1486  1546   un
  2541  1487  1547   un
  2542  1488  1548   un
  2543  1489  1549   un
  2544  1490  1550   un
  2545  1491  1551   un
  2546  1492  1552   un
  2547  1493  1553   un
  2548  1494  1554   un
  2549  1495  1555   un
  2550  1496  1556   un
  2551  1497  1557   un
  2552  1498  1558   un
  2553  1499  1559   un
  2554  1500  1560   un
  2555  1501  1561   un
  2556  1502  1562   un
  2557  1503  1563   un
  2558  1504  1564   un
  2559  1505  1565   un
  2560  1506  1566   un
  2561  1507  1567   un
  2562  1508  1568   un
  2563  1509  1569   un
  2564  1510  1629   un
  2565  1511  1628   un
  2566  1512  1621   un
  2567  1513  1620   un
  2568  1514  1625   un
  2569  1515  1624   un
  2570  1516  1641   un
  2571  1517  1638   un
  2572  1517  1718   un
  2573  1518  1640   un
  2574  1519  1639   un
  2575  1519  1719   un
  2576  1520  1633   un
  2577  1521  1630   un
  2578  1521  1720   un
  2579  1522  1632   un
  2580  1523  1631   un
  2581  1523  1721   un
  2582  1524  1637   un
  2583  1525  1634   un
  2584  1525  1722   un
  2585  1526  1636   un
  2586  1527  1635   un
  2587  1527  1723   un
  2588  1528  1569   un
  2589  1529  1566   un
  2590  1529  1710   un
  2591  1530  1568   un
  2592  1531  1567   un
  2593  1532  1561   un
  2594  1532  1712   un
  2595  1533  1558   un
  2596  1533  1713   un
  2597  1534  1560   un
  2598  1535  1559   un
  2599  1536  1565   un
  2600  1536  1715   un
  2601  1537  1562   un
  2602  1537  1716   un
  2603  1538  1564   un
  2604  1539  1563   un
  2605  1540  1556   un
  2606  1541  1555   un
  2607  1542  1548   un
  2608  1543  1547   un
  2609  1544  1552   un
  2610  1545  1551   un
  2611  1546  1570   un
  2612  1547  1571   un
  2613  1548  1572   un
  2614  1549  1573   un
  2615  1550  1574   un
  2616  1551  1575   un
  2617  1552  1576   un
  2618  1553  1577   un
  2619  1554  1578   un
  2620  1555  1579   un
  2621  1556  1580   un
  2622  1557  1581   un
  2623  1558  1582   un
  2624  1559  1583   un
  2625  1560  1584   un
  2626  1561  1585   un
  2627  1562  1586   un
  2628  1563  1587   un
  2629  1564  1588   un
  2630  1565  1589   un
  2631  1566  1590   un
  2632  1567  1591   un
  2633  1568  1592   un
  2634  1569  1593   un
  2635  1570  1571   un
  2636  1570  1594   un
  2637  1571  1595   un
  2638  1572  1573   un
  2639  1572  1596   un
  2640  1573  1597   un
  2641  1574  1575   un
  2642  1574  1598   un
  2643  1575  1599   un
  2644  1576  1577   un
  2645  1576  1600   un
  2646  1577  1601   un
  2647  1578  1579   un
  2648  1578  1602   un
  2649  1579  1603   un
  2650  1580  1581   un
  2651  1580  1604   un
  2652  1581  1605   un
  2653  1582  1583   un
  2654  1582  1606   un
  2655  1583  1607   un
  2656  1584  1585   un
  2657  1584  1608   un
  2658  1585  1609   un
  2659  1586  1587   un
  2660  1586  1610   un
  2661  1587  1611   un
  2662  1588  1589   un
  2663  1588  1612   un
  2664  1589  1613   un
  2665  1590  1591   un
  2666  1590  1614   un
  2667  1591  1615   un
  2668  1592  1593   un
  2669  1592  1616   un
  2670  1593  1617   un
  2671  1618  1642   un
  2672  1619  1643   un
  2673  1620  1644   un
  2674  1621  1645   un
  2675  1622  1646   un
  2676  1623  1647   un
  2677  1624  1648   un
  2678  1625  1649   un
  2679  1626  1650   un
  2680  1627  1651   un
  2681  1628  1652   un
  2682  1629  1653   un
  2683  1630  1654   un
  2684  1631  1655   un
  2685  1632  1656   un
  2686  1633  1657   un
  2687  1634  1658   un
  2688  1635  1659   un
  2689  1636  1660   un
  2690  1637  1661   un
  2691  1638  1662   un
  2692  1639  1663   un
  2693  1640  1664   un
  2694  1641  1665   un
  2695  1642  1643   un
  2696  1642  1666   un
  2697  1643  1667   un
  2698  1644  1645   un
  2699  1644  1668   un
  2700  1645  1669   un
  2701  1646  1647   un
  2702  1646  1670   un
  2703  1647  1671   un
  2704  1648  1649   un
  2705  1648  1672   un
  2706  1649  1673   un
  2707  1650  1651   un
  2708  1650  1674   un
  2709  1651  1675   un
  2710  1652  1653   un
  2711  1652  1676   un
  2712  1653  1677   un
  2713  1654  1655   un
  2714  1654  1678   un
  2715  1655  1679   un
  2716  1656  1657   un
  2717  1656  1680   un
  2718  1657  1681   un
  2719  1658  1659   un
  2720  1658  1682   un
  2721  1659  1683   un
  2722  1660  1661   un
  2723  1660  1684   un
  2724  1661  1685   un
  2725  1662  1663   un
  2726  1662  1686   un
  2727  1663  1687   un
  2728  1664  1665   un
  2729  1664  1688   un
  2730  1665  1689   un
  2731  1690  1710   un
  2732  1690  1721   un
  2733  1692  1712   un
  2734  1693  1713   un
  2735  1693  1723   un
  2736  1695  1715   un
  2737  1696  1716   un
  2738  1696  1719   un
  2739  1699  1712   un
  2740  1701  1715   un
  2741  1705  1720   un
  2742  1705  1723   un
  2743  1706  1718   un
  2744  1706  1721   un
  2745  1708  1719   un
  2746  1708  1722   un
  2747  1709  1742   un
  2748  1709  1749   un
  2749  1709  1752   un
  2750  1709  2464   un
  2751  1709  2516   un
  2752  1709  2535   un
  2753  1709  2543   un
  2754  1709  2557   un
  2755  1710  1714   un
  2756  1710  1721   un
  2757  1710  1750   un
  2758  1710  1770   un
  2759  1710  1891   un
  2760  1710  1896   un
  2761  1710  1899   un
  2762  1710  1903   un
  2763  1710  1913   un
  2764  1711  1716   un
  2765  1711  1722   un
  2766  1711  1743   un
  2767  1711  1748   un
  2768  1711  2143   un
  2769  1711  2160   un
  2770  1711  2546   un
  2771  1711  2568   un
  2772  1711  2671   un
  2773  1711  2675   un
  2774  1711  2681   un
  2775  1712  1754   un
  2776  1712  2392   un
  2777  1712  2537   un
  2778  1712  2547   un
  2779  1712  2559   un
  2780  1713  1717   un
  2781  1713  1723   un
  2782  1713  1746   un
  2783  1713  1893   un
  2784  1713  1912   un
  2785  1713  2548   un
  2786  1713  2664   un
  2787  1713  2672   un
  2788  1713  2676   un
  2789  1714  1718   un
  2790  1714  1744   un
  2791  1714  1750   un
  2792  1714  1896   un
  2793  1714  1913   un
  2794  1714  2021   un
  2795  1714  2045   un
  2796  1714  2148   un
  2797  1714  2152   un
  2798  1714  2158   un
  2799  1715  1753   un
  2800  1715  2003   un
  2801  1715  2014   un
  2802  1715  2022   un
  2803  1715  2036   un
  2804  1716  1719   un
  2805  1716  1748   un
  2806  1716  2023   un
  2807  1716  2138   un
  2808  1716  2143   un
  2809  1716  2149   un
  2810  1716  2153   un
  2811  1716  2160   un
  2812  1717  1720   un
  2813  1717  1745   un
  2814  1717  1746   un
  2815  1717  1776   un
  2816  1717  1796   un
  2817  1717  1893   un
  2818  1717  1902   un
  2819  1717  1906   un
  2820  1717  1911   un
  2821  1717  1912   un
  2822  1718  1721   un
  2823  1718  1744   un
  2824  1718  1885   un
  2825  1718  1896   un
  2826  1718  2027   un
  2827  1718  2156   un
  2828  1718  2158   un
  2829  1719  1722   un
  2830  1719  2029   un
  2831  1719  2047   un
  2832  1719  2134   un
  2833  1719  2138   un
  2834  1719  2143   un
  2835  1720  1723   un
  2836  1720  1745   un
  2837  1720  1780   un
  2838  1720  1893   un
  2839  1720  1908   un
  2840  1720  1909   un
  2841  1720  1911   un
  2842  1721  1782   un
  2843  1721  1800   un
  2844  1721  1885   un
  2845  1721  1891   un
  2846  1721  1896   un
  2847  1722  1743   un
  2848  1722  2134   un
  2849  1722  2143   un
  2850  1722  2554   un
  2851  1722  2679   un
  2852  1722  2681   un
  2853  1723  1893   un
  2854  1723  1909   un
  2855  1723  2556   un
  2856  1723  2574   un
  2857  1723  2664   un
  2858  1724  2093   un
  2859  1725  2095   un
  2860  1726  1848   un
  2861  1727  1850   un
  2862  1728  2626   un
  2863  1729  2628   un
  2864  1730  2100   un
  2865  1731  2101   un
  2866  1732  1843   un
  2867  1733  1844   un
  2868  1734  2621   un
  2869  1735  2622   un
  2870  1736  1808   un
  2871  1737  1805   un
  2872  1738  2578   un
  2873  1739  2575   un
  2874  1740  2053   un
  2875  1741  2050   un
  2876  1755  1756   un
  2877  1755  1757   un
  2878  1755  1760   un
  2879  1755  1762   un
  2880  1755  1771   un
  2881  1755  1784   un
  2882  1755  1890   un
  2883  1755  1892   un
  2884  1756  1757   un
  2885  1756  1758   un
  2886  1756  1764   un
  2887  1756  1786   un
  2888  1756  1792   un
  2889  1756  1888   un
  2890  1756  1892   un
  2891  1757  1758   un
  2892  1757  1760   un
  2893  1757  1766   un
  2894  1757  1775   un
  2895  1757  1788   un
  2896  1757  1795   un
  2897  1757  1887   un
  2898  1757  1888   un
  2899  1757  1890   un
  2900  1757  1892   un
  2901  1758  1760   un
  2902  1758  1767   un
  2903  1758  1777   un
  2904  1758  1797   un
  2905  1758  1887   un
  2906  1758  1888   un
  2907  1759  1779   un
  2908  1759  1789   un
  2909  1759  1886   un
  2910  1759  1894   un
  2911  1759  1897   un
  2912  1759  1898   un
  2913  1759  1907   un
  2914  1759  1910   un
  2915  1760  1781   un
  2916  1760  1790   un
  2917  1760  1799   un
  2918  1760  1887   un
  2919  1760  1890   un
  2920  1761  1843   un
  2921  1762  1845   un
  2922  1763  1847   un
  2923  1764  1849   un
  2924  1765  1851   un
  2925  1766  1853   un
  2926  1767  1855   un
  2927  1768  1856   un
  2928  1768  1898   un
  2929  1769  1801   un
  2930  1770  1802   un
  2931  1771  1803   un
  2932  1772  1804   un
  2933  1773  1805   un
  2934  1774  1806   un
  2935  1775  1807   un
  2936  1776  1808   un
  2937  1777  1809   un
  2938  1778  1810   un
  2939  1779  1811   un
  2940  1780  1812   un
  2941  1781  1813   un
  2942  1782  1814   un
  2943  1783  1854   un
  2944  1784  1853   un
  2945  1785  1846   un
  2946  1786  1845   un
  2947  1787  1850   un
  2948  1788  1849   un
  2949  1789  1856   un
  2950  1790  1855   un
  2951  1791  1810   un
  2952  1791  1895   un
  2953  1792  1809   un
  2954  1793  1814   un
  2955  1793  1896   un
  2956  1794  1811   un
  2957  1794  1897   un
  2958  1795  1813   un
  2959  1796  1812   un
  2960  1797  1807   un
  2961  1798  1806   un
  2962  1799  1803   un
  2963  1800  1802   un
  2964  1801  1815   un
  2965  1802  1816   un
  2966  1803  1817   un
  2967  1804  1818   un
  2968  1805  1819   un
  2969  1806  1820   un
  2970  1807  1821   un
  2971  1808  1822   un
  2972  1809  1823   un
  2973  1810  1824   un
  2974  1811  1825   un
  2975  1812  1826   un
  2976  1813  1827   un
  2977  1814  1828   un
  2978  1815  1816   un
  2979  1815  1829   un
  2980  1816  1830   un
  2981  1817  1818   un
  2982  1817  1831   un
  2983  1818  1832   un
  2984  1819  1820   un
  2985  1819  1833   un
  2986  1820  1834   un
  2987  1821  1822   un
  2988  1821  1835   un
  2989  1822  1836   un
  2990  1823  1824   un
  2991  1823  1837   un
  2992  1824  1838   un
  2993  1825  1826   un
  2994  1825  1839   un
  2995  1826  1840   un
  2996  1827  1828   un
  2997  1827  1841   un
  2998  1828  1842   un
  2999  1843  1857   un
  3000  1844  1858   un
  3001  1845  1859   un
  3002  1846  1860   un
  3003  1847  1861   un
  3004  1848  1862   un
  3005  1849  1863   un
  3006  1850  1864   un
  3007  1851  1865   un
  3008  1852  1866   un
  3009  1853  1867   un
  3010  1854  1868   un
  3011  1855  1869   un
  3012  1856  1870   un
  3013  1857  1858   un
  3014  1857  1871   un
  3015  1858  1872   un
  3016  1859  1860   un
  3017  1859  1873   un
  3018  1860  1874   un
  3019  1861  1862   un
  3020  1861  1875   un
  3021  1862  1876   un
  3022  1863  1864   un
  3023  1863  1877   un
  3024  1864  1878   un
  3025  1865  1866   un
  3026  1865  1879   un
  3027  1866  1880   un
  3028  1867  1868   un
  3029  1867  1881   un
  3030  1868  1882   un
  3031  1869  1870   un
  3032  1869  1883   un
  3033  1870  1884   un
  3034  1885  1896   un
  3035  1886  1897   un
  3036  1886  1898   un
  3037  1889  1895   un
  3038  1891  1896   un
  3039  1893  1909   un
  3040  1893  1911   un
  3041  1893  1912   un
  3042  1893  2565   un
  3043  1893  2664   un
  3044  1893  2687   un
  3045  1893  2693   un
  3046  1893  2699   un
  3047  1894  1897   un
  3048  1894  1910   un
  3049  1894  2245   un
  3050  1894  2251   un
  3051  1894  2696   un
  3052  1894  2768   un
  3053  1894  2770   un
  3054  1895  1914   un
  3055  1895  2689   un
  3056  1895  2701   un
  3057  1896  1913   un
  3058  1896  2158   un
  3059  1896  2169   un
  3060  1896  2171   un
  3061  1896  2181   un
  3062  1897  1898   un
  3063  1897  1910   un
  3064  1897  2172   un
  3065  1897  2242   un
  3066  1897  2245   un
  3067  1897  2246   un
  3068  1897  2248   un
  3069  1897  2251   un
  3070  1898  2176   un
  3071  1898  2186   un
  3072  1898  2242   un
  3073  1898  2245   un
  3074  1899  2206   un
  3075  1900  2208   un
  3076  1901  2736   un
  3077  1902  2738   un
  3078  1903  2213   un
  3079  1904  2214   un
  3080  1905  2731   un
  3081  1906  2732   un
  3082  1907  2712   un
  3083  1908  2709   un
  3084  1915  1916   un
  3085  1915  1919   un
  3086  1915  1920   un
  3087  1915  1938   un
  3088  1915  1990   un
  3089  1916  1918   un
  3090  1916  1919   un
  3091  1916  1925   un
  3092  1916  1934   un
  3093  1916  1941   un
  3094  1916  1989   un
  3095  1916  1990   un
  3096  1917  1927   un
  3097  1917  1935   un
  3098  1917  1988   un
  3099  1917  1993   un
  3100  1917  1994   un
  3101  1917  1995   un
  3102  1917  2000   un
  3103  1917  2002   un
  3104  1918  1919   un
  3105  1918  1929   un
  3106  1918  1936   un
  3107  1918  1989   un
  3108  1919  1921   un
  3109  1919  1931   un
  3110  1919  1943   un
  3111  1919  1989   un
  3112  1919  1990   un
  3113  1920  1975   un
  3114  1921  1977   un
  3115  1922  1978   un
  3116  1922  1995   un
  3117  1923  1945   un
  3118  1924  1946   un
  3119  1925  1947   un
  3120  1926  1948   un
  3121  1927  1949   un
  3122  1928  1950   un
  3123  1929  1951   un
  3124  1930  1952   un
  3125  1931  1953   un
  3126  1932  1954   un
  3127  1933  1976   un
  3128  1934  1975   un
  3129  1935  1978   un
  3130  1936  1977   un
  3131  1937  1954   un
  3132  1938  1953   un
  3133  1939  1952   un
  3134  1939  1992   un
  3135  1940  1949   un
  3136  1940  1993   un
  3137  1941  1951   un
  3138  1942  1950   un
  3139  1943  1947   un
  3140  1944  1946   un
  3141  1945  1955   un
  3142  1946  1956   un
  3143  1947  1957   un
  3144  1948  1958   un
  3145  1949  1959   un
  3146  1950  1960   un
  3147  1951  1961   un
  3148  1952  1962   un
  3149  1953  1963   un
  3150  1954  1964   un
  3151  1955  1956   un
  3152  1955  1965   un
  3153  1956  1966   un
  3154  1957  1958   un
  3155  1957  1967   un
  3156  1958  1968   un
  3157  1959  1960   un
  3158  1959  1969   un
  3159  1960  1970   un
  3160  1961  1962   un
  3161  1961  1971   un
  3162  1962  1972   un
  3163  1963  1964   un
  3164  1963  1973   un
  3165  1964  1974   un
  3166  1975  1979   un
  3167  1976  1980   un
  3168  1977  1981   un
  3169  1978  1982   un
  3170  1979  1980   un
  3171  1979  1983   un
  3172  1980  1984   un
  3173  1981  1982   un
  3174  1981  1985   un
  3175  1982  1986   un
  3176  1987  1992   un
  3177  1988  1993   un
  3178  1988  1995   un
  3179  1992  2528   un
  3180  1992  2776   un
  3181  1992  2782   un
  3182  1993  1994   un
  3183  1993  1995   un
  3184  1993  2002   un
  3185  1993  2142   un
  3186  1993  2159   un
  3187  1993  2777   un
  3188  1993  2813   un
  3189  1993  2814   un
  3190  1993  2816   un
  3191  1994  2002   un
  3192  1994  2025   un
  3193  1994  2142   un
  3194  1994  2150   un
  3195  1994  2154   un
  3196  1994  2159   un
  3197  1995  2142   un
  3198  1995  2781   un
  3199  1995  2787   un
  3200  1995  2813   un
  3201  1996  2097   un
  3202  1997  2099   un
  3203  1998  2092   un
  3204  1999  2093   un
  3205  2000  2057   un
  3206  2001  2054   un
  3207  2004  2005   un
  3208  2004  2006   un
  3209  2004  2009   un
  3210  2004  2011   un
  3211  2004  2033   un
  3212  2004  2041   un
  3213  2004  2139   un
  3214  2004  2141   un
  3215  2005  2006   un
  3216  2005  2008   un
  3217  2005  2009   un
  3218  2005  2013   un
  3219  2005  2020   un
  3220  2005  2035   un
  3221  2005  2044   un
  3222  2005  2136   un
  3223  2005  2137   un
  3224  2005  2139   un
  3225  2005  2141   un
  3226  2006  2008   un
  3227  2006  2015   un
  3228  2006  2024   un
  3229  2006  2037   un
  3230  2006  2137   un
  3231  2006  2141   un
  3232  2007  2026   un
  3233  2007  2038   un
  3234  2007  2135   un
  3235  2007  2144   un
  3236  2007  2145   un
  3237  2007  2146   un
  3238  2007  2155   un
  3239  2007  2157   un
  3240  2008  2009   un
  3241  2008  2028   un
  3242  2008  2039   un
  3243  2008  2046   un
  3244  2008  2136   un
  3245  2008  2137   un
  3246  2009  2016   un
  3247  2009  2030   un
  3248  2009  2048   un
  3249  2009  2136   un
  3250  2009  2139   un
  3251  2010  2092   un
  3252  2011  2094   un
  3253  2012  2096   un
  3254  2013  2098   un
  3255  2014  2100   un
  3256  2015  2102   un
  3257  2016  2104   un
  3258  2017  2105   un
  3259  2017  2146   un
  3260  2018  2050   un
  3261  2019  2051   un
  3262  2020  2052   un
  3263  2021  2053   un
  3264  2022  2054   un
  3265  2023  2055   un
  3266  2024  2056   un
  3267  2025  2057   un
  3268  2026  2058   un
  3269  2027  2059   un
  3270  2028  2060   un
  3271  2029  2061   un
  3272  2030  2062   un
  3273  2031  2063   un
  3274  2032  2103   un
  3275  2033  2102   un
  3276  2034  2095   un
  3277  2035  2094   un
  3278  2036  2099   un
  3279  2037  2098   un
  3280  2038  2105   un
  3281  2039  2104   un
  3282  2040  2063   un
  3283  2041  2062   un
  3284  2042  2061   un
  3285  2042  2143   un
  3286  2043  2058   un
  3287  2043  2144   un
  3288  2044  2060   un
  3289  2045  2059   un
  3290  2046  2056   un
  3291  2047  2055   un
  3292  2048  2052   un
  3293  2049  2051   un
  3294  2050  2064   un
  3295  2051  2065   un
  3296  2052  2066   un
  3297  2053  2067   un
  3298  2054  2068   un
  3299  2055  2069   un
  3300  2056  2070   un
  3301  2057  2071   un
  3302  2058  2072   un
  3303  2059  2073   un
  3304  2060  2074   un
  3305  2061  2075   un
  3306  2062  2076   un
  3307  2063  2077   un
  3308  2064  2065   un
  3309  2064  2078   un
  3310  2065  2079   un
  3311  2066  2067   un
  3312  2066  2080   un
  3313  2067  2081   un
  3314  2068  2069   un
  3315  2068  2082   un
  3316  2069  2083   un
  3317  2070  2071   un
  3318  2070  2084   un
  3319  2071  2085   un
  3320  2072  2073   un
  3321  2072  2086   un
  3322  2073  2087   un
  3323  2074  2075   un
  3324  2074  2088   un
  3325  2075  2089   un
  3326  2076  2077   un
  3327  2076  2090   un
  3328  2077  2091   un
  3329  2092  2106   un
  3330  2093  2107   un
  3331  2094  2108   un
  3332  2095  2109   un
  3333  2096  2110   un
  3334  2097  2111   un
  3335  2098  2112   un
  3336  2099  2113   un
  3337  2100  2114   un
  3338  2101  2115   un
  3339  2102  2116   un
  3340  2103  2117   un
  3341  2104  2118   un
  3342  2105  2119   un
  3343  2106  2107   un
  3344  2106  2120   un
  3345  2107  2121   un
  3346  2108  2109   un
  3347  2108  2122   un
  3348  2109  2123   un
  3349  2110  2111   un
  3350  2110  2124   un
  3351  2111  2125   un
  3352  2112  2113   un
  3353  2112  2126   un
  3354  2113  2127   un
  3355  2114  2115   un
  3356  2114  2128   un
  3357  2115  2129   un
  3358  2116  2117   un
  3359  2116  2130   un
  3360  2117  2131   un
  3361  2118  2119   un
  3362  2118  2132   un
  3363  2119  2133   un
  3364  2134  2143   un
  3365  2135  2144   un
  3366  2135  2146   un
  3367  2138  2143   un
  3368  2142  2159   un
  3369  2142  2784   un
  3370  2142  2813   un
  3371  2142  2822   un
  3372  2142  2834   un
  3373  2143  2160   un
  3374  2143  2681   un
  3375  2143  2824   un
  3376  2143  2828   un
  3377  2143  2836   un
  3378  2144  2145   un
  3379  2144  2146   un
  3380  2144  2157   un
  3381  2144  2244   un
  3382  2144  2250   un
  3383  2144  2829   un
  3384  2144  2899   un
  3385  2144  2901   un
  3386  2144  2903   un
  3387  2145  2157   un
  3388  2145  2174   un
  3389  2145  2244   un
  3390  2145  2247   un
  3391  2145  2249   un
  3392  2145  2250   un
  3393  2146  2244   un
  3394  2146  2833   un
  3395  2146  2843   un
  3396  2146  2899   un
  3397  2147  2210   un
  3398  2148  2212   un
  3399  2149  2871   un
  3400  2150  2873   un
  3401  2151  2205   un
  3402  2152  2206   un
  3403  2153  2866   un
  3404  2154  2867   un
  3405  2155  2190   un
  3406  2156  2187   un
  3407  2161  2162   un
  3408  2161  2163   un
  3409  2161  2166   un
  3410  2161  2178   un
  3411  2161  2243   un
  3412  2162  2163   un
  3413  2162  2164   un
  3414  2162  2168   un
  3415  2162  2180   un
  3416  2162  2184   un
  3417  2162  2241   un
  3418  2162  2243   un
  3419  2163  2164   un
  3420  2163  2170   un
  3421  2163  2173   un
  3422  2163  2182   un
  3423  2163  2241   un
  3424  2163  2243   un
  3425  2164  2175   un
  3426  2164  2185   un
  3427  2164  2241   un
  3428  2165  2205   un
  3429  2166  2207   un
  3430  2167  2209   un
  3431  2168  2211   un
  3432  2169  2213   un
  3433  2170  2215   un
  3434  2171  2187   un
  3435  2172  2188   un
  3436  2173  2189   un
  3437  2174  2190   un
  3438  2175  2191   un
  3439  2176  2192   un
  3440  2177  2216   un
  3441  2178  2215   un
  3442  2179  2208   un
  3443  2180  2207   un
  3444  2181  2212   un
  3445  2182  2211   un
  3446  2183  2192   un
  3447  2183  2245   un
  3448  2184  2191   un
  3449  2185  2189   un
  3450  2186  2188   un
  3451  2187  2193   un
  3452  2188  2194   un
  3453  2189  2195   un
  3454  2190  2196   un
  3455  2191  2197   un
  3456  2192  2198   un
  3457  2193  2194   un
  3458  2193  2199   un
  3459  2194  2200   un
  3460  2195  2196   un
  3461  2195  2201   un
  3462  2196  2202   un
  3463  2197  2198   un
  3464  2197  2203   un
  3465  2198  2204   un
  3466  2205  2217   un
  3467  2206  2218   un
  3468  2207  2219   un
  3469  2208  2220   un
  3470  2209  2221   un
  3471  2210  2222   un
  3472  2211  2223   un
  3473  2212  2224   un
  3474  2213  2225   un
  3475  2214  2226   un
  3476  2215  2227   un
  3477  2216  2228   un
  3478  2217  2218   un
  3479  2217  2229   un
  3480  2218  2230   un
  3481  2219  2220   un
  3482  2219  2231   un
  3483  2220  2232   un
  3484  2221  2222   un
  3485  2221  2233   un
  3486  2222  2234   un
  3487  2223  2224   un
  3488  2223  2235   un
  3489  2224  2236   un
  3490  2225  2226   un
  3491  2225  2237   un
  3492  2226  2238   un
  3493  2227  2228   un
  3494  2227  2239   un
  3495  2228  2240   un
  3496  2242  2245   un
  3497  2244  2250   un
  3498  2244  2840   un
  3499  2244  2899   un
  3500  2244  2908   un
  3501  2244  2914   un
  3502  2245  2251   un
  3503  2245  2910   un
  3504  2245  2916   un
  3505  2246  2929   un
  3506  2247  2931   un
  3507  2248  2924   un
  3508  2249  2925   un
  3509  2252  2253   un
  3510  2252  2255   un
  3511  2252  2258   un
  3512  2252  2268   un
  3513  2252  2296   un
  3514  2253  2255   un
  3515  2253  2256   un
  3516  2253  2270   un
  3517  2253  2296   un
  3518  2254  2260   un
  3519  2254  2264   un
  3520  2254  2295   un
  3521  2254  2297   un
  3522  2254  2298   un
  3523  2254  2299   un
  3524  2254  2301   un
  3525  2254  2303   un
  3526  2255  2262   un
  3527  2255  2265   un
  3528  2255  2296   un
  3529  2256  2289   un
  3530  2257  2290   un
  3531  2257  2299   un
  3532  2258  2271   un
  3533  2259  2272   un
  3534  2260  2273   un
  3535  2261  2274   un
  3536  2262  2275   un
  3537  2263  2276   un
  3538  2264  2290   un
  3539  2265  2289   un
  3540  2266  2276   un
  3541  2267  2273   un
  3542  2267  2297   un
  3543  2268  2275   un
  3544  2269  2274   un
  3545  2270  2271   un
  3546  2271  2277   un
  3547  2272  2278   un
  3548  2273  2279   un
  3549  2274  2280   un
  3550  2275  2281   un
  3551  2276  2282   un
  3552  2277  2278   un
  3553  2277  2283   un
  3554  2278  2284   un
  3555  2279  2280   un
  3556  2279  2285   un
  3557  2280  2286   un
  3558  2281  2282   un
  3559  2281  2287   un
  3560  2282  2288   un
  3561  2289  2291   un
  3562  2290  2292   un
  3563  2291  2292   un
  3564  2291  2293   un
  3565  2292  2294   un
  3566  2295  2297   un
  3567  2295  2299   un
  3568  2297  2298   un
  3569  2297  2299   un
  3570  2297  2303   un
  3571  2297  2314   un
  3572  2297  2380   un
  3573  2297  2383   un
  3574  2297  2385   un
  3575  2297  2387   un
  3576  2297  2393   un
  3577  2298  2303   un
  3578  2298  2383   un
  3579  2298  2393   un
  3580  2298  2455   un
  3581  2298  2522   un
  3582  2298  2524   un
  3583  2299  2318   un
  3584  2299  2334   un
  3585  2299  2380   un
  3586  2299  2383   un
  3587  2300  2502   un
  3588  2301  2476   un
  3589  2302  2473   un
  3590  2305  2306   un
  3591  2305  2307   un
  3592  2305  2309   un
  3593  2305  2315   un
  3594  2305  2324   un
  3595  2305  2329   un
  3596  2305  2378   un
  3597  2305  2379   un
  3598  2306  2307   un
  3599  2306  2310   un
  3600  2306  2332   un
  3601  2306  2379   un
  3602  2307  2309   un
  3603  2307  2311   un
  3604  2307  2317   un
  3605  2307  2333   un
  3606  2307  2378   un
  3607  2307  2379   un
  3608  2308  2319   un
  3609  2308  2325   un
  3610  2308  2377   un
  3611  2308  2381   un
  3612  2308  2382   un
  3613  2308  2384   un
  3614  2308  2389   un
  3615  2308  2391   un
  3616  2309  2321   un
  3617  2309  2326   un
  3618  2309  2378   un
  3619  2310  2365   un
  3620  2311  2367   un
  3621  2312  2368   un
  3622  2312  2384   un
  3623  2313  2335   un
  3624  2314  2336   un
  3625  2315  2337   un
  3626  2316  2338   un
  3627  2317  2339   un
  3628  2318  2340   un
  3629  2319  2341   un
  3630  2320  2342   un
  3631  2321  2343   un
  3632  2322  2344   un
  3633  2323  2366   un
  3634  2324  2365   un
  3635  2325  2368   un
  3636  2326  2367   un
  3637  2327  2344   un
  3638  2328  2341   un
  3639  2328  2381   un
  3640  2329  2343   un
  3641  2330  2342   un
  3642  2331  2340   un
  3643  2331  2383   un
  3644  2332  2339   un
  3645  2333  2337   un
  3646  2334  2336   un
  3647  2335  2345   un
  3648  2336  2346   un
  3649  2337  2347   un
  3650  2338  2348   un
  3651  2339  2349   un
  3652  2340  2350   un
  3653  2341  2351   un
  3654  2342  2352   un
  3655  2343  2353   un
  3656  2344  2354   un
  3657  2345  2346   un
  3658  2345  2355   un
  3659  2346  2356   un
  3660  2347  2348   un
  3661  2347  2357   un
  3662  2348  2358   un
  3663  2349  2350   un
  3664  2349  2359   un
  3665  2350  2360   un
  3666  2351  2352   un
  3667  2351  2361   un
  3668  2352  2362   un
  3669  2353  2354   un
  3670  2353  2363   un
  3671  2354  2364   un
  3672  2365  2369   un
  3673  2366  2370   un
  3674  2367  2371   un
  3675  2368  2372   un
  3676  2369  2370   un
  3677  2369  2373   un
  3678  2370  2374   un
  3679  2371  2372   un
  3680  2371  2375   un
  3681  2372  2376   un
  3682  2377  2381   un
  3683  2377  2384   un
  3684  2380  2383   un
  3685  2381  2382   un
  3686  2381  2384   un
  3687  2381  2391   un
  3688  2381  2399   un
  3689  2381  2435   un
  3690  2381  2436   un
  3691  2381  2437   un
  3692  2381  2439   un
  3693  2381  2441   un
  3694  2382  2391   un
  3695  2382  2436   un
  3696  2382  2441   un
  3697  2382  2550   un
  3698  2382  2673   un
  3699  2382  2677   un
  3700  2383  2393   un
  3701  2383  2539   un
  3702  2383  2561   un
  3703  2384  2403   un
  3704  2384  2409   un
  3705  2384  2435   un
  3706  2384  2436   un
  3707  2385  2618   un
  3708  2386  2620   un
  3709  2387  2625   un
  3710  2388  2626   un
  3711  2389  2582   un
  3712  2390  2579   un
  3713  2394  2395   un
  3714  2394  2396   un
  3715  2394  2400   un
  3716  2394  2405   un
  3717  2394  2434   un
  3718  2395  2396   un
  3719  2395  2397   un
  3720  2395  2407   un
  3721  2395  2434   un
  3722  2396  2402   un
  3723  2396  2408   un
  3724  2396  2434   un
  3725  2397  2428   un
  3726  2398  2410   un
  3727  2399  2411   un
  3728  2400  2412   un
  3729  2401  2413   un
  3730  2402  2414   un
  3731  2403  2415   un
  3732  2404  2429   un
  3733  2405  2428   un
  3734  2406  2415   un
  3735  2406  2436   un
  3736  2407  2414   un
  3737  2408  2412   un
  3738  2409  2411   un
  3739  2410  2416   un
  3740  2411  2417   un
  3741  2412  2418   un
  3742  2413  2419   un
  3743  2414  2420   un
  3744  2415  2421   un
  3745  2416  2417   un
  3746  2416  2422   un
  3747  2417  2423   un
  3748  2418  2419   un
  3749  2418  2424   un
  3750  2419  2425   un
  3751  2420  2421   un
  3752  2420  2426   un
  3753  2421  2427   un
  3754  2428  2430   un
  3755  2429  2431   un
  3756  2430  2431   un
  3757  2430  2432   un
  3758  2431  2433   un
  3759  2435  2436   un
  3760  2436  2441   un
  3761  2436  2691   un
  3762  2436  2703   un
  3763  2437  2728   un
  3764  2438  2730   un
  3765  2439  2735   un
  3766  2440  2736   un
  3767  2442  2443   un
  3768  2442  2444   un
  3769  2442  2446   un
  3770  2442  2447   un
  3771  2442  2450   un
  3772  2442  2466   un
  3773  2442  2514   un
  3774  2442  2515   un
  3775  2443  2446   un
  3776  2443  2454   un
  3777  2443  2461   un
  3778  2443  2515   un
  3779  2444  2446   un
  3780  2444  2448   un
  3781  2444  2468   un
  3782  2444  2514   un
  3783  2445  2456   un
  3784  2445  2462   un
  3785  2445  2513   un
  3786  2445  2517   un
  3787  2445  2518   un
  3788  2445  2519   un
  3789  2445  2525   un
  3790  2445  2527   un
  3791  2446  2458   un
  3792  2446  2463   un
  3793  2446  2469   un
  3794  2446  2514   un
  3795  2446  2515   un
  3796  2447  2501   un
  3797  2448  2503   un
  3798  2449  2504   un
  3799  2449  2519   un
  3800  2450  2471   un
  3801  2451  2472   un
  3802  2452  2473   un
  3803  2453  2474   un
  3804  2454  2475   un
  3805  2455  2476   un
  3806  2456  2477   un
  3807  2457  2478   un
  3808  2458  2479   un
  3809  2459  2480   un
  3810  2460  2502   un
  3811  2461  2501   un
  3812  2462  2504   un
  3813  2463  2503   un
  3814  2464  2480   un
  3815  2465  2477   un
  3816  2465  2517   un
  3817  2466  2479   un
  3818  2467  2478   un
  3819  2468  2471   un
  3820  2469  2475   un
  3821  2470  2474   un
  3822  2471  2481   un
  3823  2472  2482   un
  3824  2473  2483   un
  3825  2474  2484   un
  3826  2475  2485   un
  3827  2476  2486   un
  3828  2477  2487   un
  3829  2478  2488   un
  3830  2479  2489   un
  3831  2480  2490   un
  3832  2481  2482   un
  3833  2481  2491   un
  3834  2482  2492   un
  3835  2483  2484   un
  3836  2483  2493   un
  3837  2484  2494   un
  3838  2485  2486   un
  3839  2485  2495   un
  3840  2486  2496   un
  3841  2487  2488   un
  3842  2487  2497   un
  3843  2488  2498   un
  3844  2489  2490   un
  3845  2489  2499   un
  3846  2490  2500   un
  3847  2501  2505   un
  3848  2502  2506   un
  3849  2503  2507   un
  3850  2504  2508   un
  3851  2505  2506   un
  3852  2505  2509   un
  3853  2506  2510   un
  3854  2507  2508   un
  3855  2507  2511   un
  3856  2508  2512   un
  3857  2513  2517   un
  3858  2513  2519   un
  3859  2517  2518   un
  3860  2517  2519   un
  3861  2517  2527   un
  3862  2517  2544   un
  3863  2517  2662   un
  3864  2517  2668   un
  3865  2517  2670   un
  3866  2517  2674   un
  3867  2517  2682   un
  3868  2518  2527   un
  3869  2518  2668   un
  3870  2518  2682   un
  3871  2518  2779   un
  3872  2518  2815   un
  3873  2518  2817   un
  3874  2519  2552   un
  3875  2519  2572   un
  3876  2519  2662   un
  3877  2519  2668   un
  3878  2520  2807   un
  3879  2521  2622   un
  3880  2522  2624   un
  3881  2523  2617   un
  3882  2524  2618   un
  3883  2525  2791   un
  3884  2526  2788   un
  3885  2529  2530   un
  3886  2529  2531   un
  3887  2529  2532   un
  3888  2529  2534   un
  3889  2529  2536   un
  3890  2529  2545   un
  3891  2529  2558   un
  3892  2529  2567   un
  3893  2529  2660   un
  3894  2529  2661   un
  3895  2529  2663   un
  3896  2529  2665   un
  3897  2530  2531   un
  3898  2530  2534   un
  3899  2530  2538   un
  3900  2530  2549   un
  3901  2530  2560   un
  3902  2530  2663   un
  3903  2530  2665   un
  3904  2531  2532   un
  3905  2531  2540   un
  3906  2531  2562   un
  3907  2531  2570   un
  3908  2531  2661   un
  3909  2531  2665   un
  3910  2532  2534   un
  3911  2532  2541   un
  3912  2532  2551   un
  3913  2532  2571   un
  3914  2532  2660   un
  3915  2532  2661   un
  3916  2533  2553   un
  3917  2533  2563   un
  3918  2533  2659   un
  3919  2533  2666   un
  3920  2533  2667   un
  3921  2533  2669   un
  3922  2533  2678   un
  3923  2533  2680   un
  3924  2534  2555   un
  3925  2534  2564   un
  3926  2534  2573   un
  3927  2534  2660   un
  3928  2534  2663   un
  3929  2535  2617   un
  3930  2536  2619   un
  3931  2537  2621   un
  3932  2538  2623   un
  3933  2539  2625   un
  3934  2540  2627   un
  3935  2541  2629   un
  3936  2542  2630   un
  3937  2542  2669   un
  3938  2543  2575   un
  3939  2544  2576   un
  3940  2545  2577   un
  3941  2546  2578   un
  3942  2547  2579   un
  3943  2548  2580   un
  3944  2549  2581   un
  3945  2550  2582   un
  3946  2551  2583   un
  3947  2552  2584   un
  3948  2553  2585   un
  3949  2554  2586   un
  3950  2555  2587   un
  3951  2556  2588   un
  3952  2557  2628   un
  3953  2558  2627   un
  3954  2559  2620   un
  3955  2560  2619   un
  3956  2561  2624   un
  3957  2562  2623   un
  3958  2563  2630   un
  3959  2564  2629   un
  3960  2565  2588   un
  3961  2566  2585   un
  3962  2566  2666   un
  3963  2567  2587   un
  3964  2568  2586   un
  3965  2569  2584   un
  3966  2569  2668   un
  3967  2570  2583   un
  3968  2571  2577   un
  3969  2572  2576   un
  3970  2573  2581   un
  3971  2574  2580   un
  3972  2575  2589   un
  3973  2576  2590   un
  3974  2577  2591   un
  3975  2578  2592   un
  3976  2579  2593   un
  3977  2580  2594   un
  3978  2581  2595   un
  3979  2582  2596   un
  3980  2583  2597   un
  3981  2584  2598   un
  3982  2585  2599   un
  3983  2586  2600   un
  3984  2587  2601   un
  3985  2588  2602   un
  3986  2589  2590   un
  3987  2589  2603   un
  3988  2590  2604   un
  3989  2591  2592   un
  3990  2591  2605   un
  3991  2592  2606   un
  3992  2593  2594   un
  3993  2593  2607   un
  3994  2594  2608   un
  3995  2595  2596   un
  3996  2595  2609   un
  3997  2596  2610   un
  3998  2597  2598   un
  3999  2597  2611   un
  4000  2598  2612   un
  4001  2599  2600   un
  4002  2599  2613   un
  4003  2600  2614   un
  4004  2601  2602   un
  4005  2601  2615   un
  4006  2602  2616   un
  4007  2617  2631   un
  4008  2618  2632   un
  4009  2619  2633   un
  4010  2620  2634   un
  4011  2621  2635   un
  4012  2622  2636   un
  4013  2623  2637   un
  4014  2624  2638   un
  4015  2625  2639   un
  4016  2626  2640   un
  4017  2627  2641   un
  4018  2628  2642   un
  4019  2629  2643   un
  4020  2630  2644   un
  4021  2631  2632   un
  4022  2631  2645   un
  4023  2632  2646   un
  4024  2633  2634   un
  4025  2633  2647   un
  4026  2634  2648   un
  4027  2635  2636   un
  4028  2635  2649   un
  4029  2636  2650   un
  4030  2637  2638   un
  4031  2637  2651   un
  4032  2638  2652   un
  4033  2639  2640   un
  4034  2639  2653   un
  4035  2640  2654   un
  4036  2641  2642   un
  4037  2641  2655   un
  4038  2642  2656   un
  4039  2643  2644   un
  4040  2643  2657   un
  4041  2644  2658   un
  4042  2659  2666   un
  4043  2659  2669   un
  4044  2662  2668   un
  4045  2666  2667   un
  4046  2666  2669   un
  4047  2666  2680   un
  4048  2666  2694   un
  4049  2666  2764   un
  4050  2666  2766   un
  4051  2666  2767   un
  4052  2666  2769   un
  4053  2666  2771   un
  4054  2667  2680   un
  4055  2667  2766   un
  4056  2667  2771   un
  4057  2667  2831   un
  4058  2667  2902   un
  4059  2667  2904   un
  4060  2668  2682   un
  4061  2668  2826   un
  4062  2668  2838   un
  4063  2669  2698   un
  4064  2669  2708   un
  4065  2669  2764   un
  4066  2669  2766   un
  4067  2670  2863   un
  4068  2671  2865   un
  4069  2672  2732   un
  4070  2673  2734   un
  4071  2674  2870   un
  4072  2675  2871   un
  4073  2676  2727   un
  4074  2677  2728   un
  4075  2678  2847   un
  4076  2679  2844   un
  4077  2683  2684   un
  4078  2683  2685   un
  4079  2683  2686   un
  4080  2683  2688   un
  4081  2683  2695   un
  4082  2683  2700   un
  4083  2683  2763   un
  4084  2683  2765   un
  4085  2684  2685   un
  4086  2684  2690   un
  4087  2684  2702   un
  4088  2684  2765   un
  4089  2685  2686   un
  4090  2685  2692   un
  4091  2685  2704   un
  4092  2685  2706   un
  4093  2685  2763   un
  4094  2685  2765   un
  4095  2686  2697   un
  4096  2686  2707   un
  4097  2686  2763   un
  4098  2687  2727   un
  4099  2688  2729   un
  4100  2689  2731   un
  4101  2690  2733   un
  4102  2691  2735   un
  4103  2692  2737   un
  4104  2693  2709   un
  4105  2694  2710   un
  4106  2695  2711   un
  4107  2696  2712   un
  4108  2697  2713   un
  4109  2698  2714   un
  4110  2699  2738   un
  4111  2700  2737   un
  4112  2701  2730   un
  4113  2702  2729   un
  4114  2703  2734   un
  4115  2704  2733   un
  4116  2705  2714   un
  4117  2705  2766   un
  4118  2706  2713   un
  4119  2707  2711   un
  4120  2708  2710   un
  4121  2709  2715   un
  4122  2710  2716   un
  4123  2711  2717   un
  4124  2712  2718   un
  4125  2713  2719   un
  4126  2714  2720   un
  4127  2715  2716   un
  4128  2715  2721   un
  4129  2716  2722   un
  4130  2717  2718   un
  4131  2717  2723   un
  4132  2718  2724   un
  4133  2719  2720   un
  4134  2719  2725   un
  4135  2720  2726   un
  4136  2727  2739   un
  4137  2728  2740   un
  4138  2729  2741   un
  4139  2730  2742   un
  4140  2731  2743   un
  4141  2732  2744   un
  4142  2733  2745   un
  4143  2734  2746   un
  4144  2735  2747   un
  4145  2736  2748   un
  4146  2737  2749   un
  4147  2738  2750   un
  4148  2739  2740   un
  4149  2739  2751   un
  4150  2740  2752   un
  4151  2741  2742   un
  4152  2741  2753   un
  4153  2742  2754   un
  4154  2743  2744   un
  4155  2743  2755   un
  4156  2744  2756   un
  4157  2745  2746   un
  4158  2745  2757   un
  4159  2746  2758   un
  4160  2747  2748   un
  4161  2747  2759   un
  4162  2748  2760   un
  4163  2749  2750   un
  4164  2749  2761   un
  4165  2750  2762   un
  4166  2764  2766   un
  4167  2766  2771   un
  4168  2766  2912   un
  4169  2766  2918   un
  4170  2767  2921   un
  4171  2768  2923   un
  4172  2769  2928   un
  4173  2770  2929   un
  4174  2772  2773   un
  4175  2772  2774   un
  4176  2772  2775   un
  4177  2772  2785   un
  4178  2772  2812   un
  4179  2773  2774   un
  4180  2773  2778   un
  4181  2773  2783   un
  4182  2773  2812   un
  4183  2774  2780   un
  4184  2774  2786   un
  4185  2774  2812   un
  4186  2775  2806   un
  4187  2776  2788   un
  4188  2777  2789   un
  4189  2778  2790   un
  4190  2779  2791   un
  4191  2780  2792   un
  4192  2781  2793   un
  4193  2782  2807   un
  4194  2783  2806   un
  4195  2784  2793   un
  4196  2785  2792   un
  4197  2786  2790   un
  4198  2787  2789   un
  4199  2788  2794   un
  4200  2789  2795   un
  4201  2790  2796   un
  4202  2791  2797   un
  4203  2792  2798   un
  4204  2793  2799   un
  4205  2794  2795   un
  4206  2794  2800   un
  4207  2795  2801   un
  4208  2796  2797   un
  4209  2796  2802   un
  4210  2797  2803   un
  4211  2798  2799   un
  4212  2798  2804   un
  4213  2799  2805   un
  4214  2806  2808   un
  4215  2807  2809   un
  4216  2808  2809   un
  4217  2808  2810   un
  4218  2809  2811   un
  4219  2814  2867   un
  4220  2815  2869   un
  4221  2816  2862   un
  4222  2817  2863   un
  4223  2818  2819   un
  4224  2818  2820   un
  4225  2818  2821   un
  4226  2818  2823   un
  4227  2818  2835   un
  4228  2818  2841   un
  4229  2818  2898   un
  4230  2818  2900   un
  4231  2819  2820   un
  4232  2819  2821   un
  4233  2819  2825   un
  4234  2819  2830   un
  4235  2819  2837   un
  4236  2819  2898   un
  4237  2819  2900   un
  4238  2820  2827   un
  4239  2820  2839   un
  4240  2820  2900   un
  4241  2821  2832   un
  4242  2821  2842   un
  4243  2821  2898   un
  4244  2822  2862   un
  4245  2823  2864   un
  4246  2824  2866   un
  4247  2825  2868   un
  4248  2826  2870   un
  4249  2827  2872   un
  4250  2828  2844   un
  4251  2829  2845   un
  4252  2830  2846   un
  4253  2831  2847   un
  4254  2832  2848   un
  4255  2833  2849   un
  4256  2834  2873   un
  4257  2835  2872   un
  4258  2836  2865   un
  4259  2837  2864   un
  4260  2838  2869   un
  4261  2839  2868   un
  4262  2840  2849   un
  4263  2841  2848   un
  4264  2842  2846   un
  4265  2843  2845   un
  4266  2844  2850   un
  4267  2845  2851   un
  4268  2846  2852   un
  4269  2847  2853   un
  4270  2848  2854   un
  4271  2849  2855   un
  4272  2850  2851   un
  4273  2850  2856   un
  4274  2851  2857   un
  4275  2852  2853   un
  4276  2852  2858   un
  4277  2853  2859   un
  4278  2854  2855   un
  4279  2854  2860   un
  4280  2855  2861   un
  4281  2862  2874   un
  4282  2863  2875   un
  4283  2864  2876   un
  4284  2865  2877   un
  4285  2866  2878   un
  4286  2867  2879   un
  4287  2868  2880   un
  4288  2869  2881   un
  4289  2870  2882   un
  4290  2871  2883   un
  4291  2872  2884   un
  4292  2873  2885   un
  4293  2874  2875   un
  4294  2874  2886   un
  4295  2875  2887   un
  4296  2876  2877   un
  4297  2876  2888   un
  4298  2877  2889   un
  4299  2878  2879   un
  4300  2878  2890   un
  4301  2879  2891   un
  4302  2880  2881   un
  4303  2880  2892   un
  4304  2881  2893   un
  4305  2882  2883   un
  4306  2882  2894   un
  4307  2883  2895   un
  4308  2884  2885   un
  4309  2884  2896   un
  4310  2885  2897   un
  4311  2901  2925   un
  4312  2902  2927   un
  4313  2903  2920   un
  4314  2904  2921   un
  4315  2905  2906   un
  4316  2905  2907   un
  4317  2905  2909   un
  4318  2905  2915   un
  4319  2905  2956   un
  4320  2906  2907   un
  4321  2906  2911   un
  4322  2906  2917   un
  4323  2906  2956   un
  4324  2907  2913   un
  4325  2907  2919   un
  4326  2907  2956   un
  4327  2908  2920   un
  4328  2909  2922   un
  4329  2910  2924   un
  4330  2911  2926   un
  4331  2912  2928   un
  4332  2913  2930   un
  4333  2914  2931   un
  4334  2915  2930   un
  4335  2916  2923   un
  4336  2917  2922   un
  4337  2918  2927   un
  4338  2919  2926   un
  4339  2920  2932   un
  4340  2921  2933   un
  4341  2922  2934   un
  4342  2923  2935   un
  4343  2924  2936   un
  4344  2925  2937   un
  4345  2926  2938   un
  4346  2927  2939   un
  4347  2928  2940   un
  4348  2929  2941   un
  4349  2930  2942   un
  4350  2931  2943   un
  4351  2932  2933   un
  4352  2932  2944   un
  4353  2933  2945   un
  4354  2934  2935   un
  4355  2934  2946   un
  4356  2935  2947   un
  4357  2936  2937   un
  4358  2936  2948   un
  4359  2937  2949   un
  4360  2938  2939   un
  4361  2938  2950   un
  4362  2939  2951   un
  4363  2940  2941   un
  4364  2940  2952   un
  4365  2941  2953   un
  4366  2942  2943   un
  4367  2942  2954   un
  4368  2943  2955   un
@<TRIPOS>CRYSIN
   17.8348   17.8348   17.8348    1.5708    1.5708    1.5708
